
! ######################################################################################
! High level information
! ######################################################################################

Version,
  9.1;                                    !- Version Identifier

Timestep,
  6;                                      !- Number of Timesteps per Hour

Building,
  -LargeOffice-ASHRAE 169-2006-2A created: 2019-06-18 16:12:49 -0700, !- Name
  0,                                      !- North Axis {deg}
  City,                                   !- Terrain
  0.04,                                   !- Loads Convergence Tolerance Value
  0.2,                                    !- Temperature Convergence Tolerance Value {deltaC}
  FullInteriorAndExterior,                !- Solar Distribution
  25,                                     !- Maximum Number of Warmup Days
  6;                                      !- Minimum Number of Warmup Days

SimulationControl,
  No,                                     !- Do Zone Sizing Calculation
  No,                                     !- Do System Sizing Calculation
  Yes,                                    !- Do Plant Sizing Calculation
  No,                                     !- Run Simulation for Sizing Periods
  Yes;                                    !- Run Simulation for Weather File Run Periods

RunPeriodControl:DaylightSavingTime,
  2nd Sunday in March,                    !- Start Date
  1st Sunday in November;                 !- End Date

OutputControl:ReportingTolerances,
  0.2,                                    !- Tolerance for Time Heating Setpoint Not Met {deltaC}
  0.2;                                    !- Tolerance for Time Cooling Setpoint Not Met {deltaC}

Site:Location,
  Houston Bush Intercontinental_TX_USA,   !- Name
  30,                                     !- Latitude {deg}
  -95.37,                                 !- Longitude {deg}
  -6,                                     !- Time Zone {hr}
  29;                                     !- Elevation {m}

Site:GroundTemperature:BuildingSurface,
  19.527,                                 !- January Ground Temperature {C}
  19.502,                                 !- February Ground Temperature {C}
  19.536,                                 !- March Ground Temperature {C}
  19.598,                                 !- April Ground Temperature {C}
  20.002,                                 !- May Ground Temperature {C}
  21.64,                                  !- June Ground Temperature {C}
  22.225,                                 !- July Ground Temperature {C}
  22.375,                                 !- August Ground Temperature {C}
  21.449,                                 !- September Ground Temperature {C}
  20.121,                                 !- October Ground Temperature {C}
  19.802,                                 !- November Ground Temperature {C}
  19.633;                                 !- December Ground Temperature {C}

Site:WaterMainsTemperature,
  Correlation,                            !- Calculation Method
  ,                                       !- Temperature Schedule Name
  20.3166666666667,                       !- Annual Average Outdoor Air Temperature {C}
  17.8;                                   !- Maximum Difference In Monthly Average Outdoor Air Temperatures {deltaC}

SizingPeriod:DesignDay,
  Houston Bush Intercontinental Ann Clg .4% Condns DB=>MWB, !- Name
  7,                                      !- Month
  21,                                     !- Day of Month
  SummerDesignDay,                        !- Day Type
  36,                                     !- Maximum Dry-Bulb Temperature {C}
  10.1,                                   !- Daily Dry-Bulb Temperature Range {deltaC}
  DefaultMultipliers,                     !- Dry-Bulb Temperature Range Modifier Type
  ,                                       !- Dry-Bulb Temperature Range Modifier Day Schedule Name
  Wetbulb,                                !- Humidity Condition Type
  24.8,                                   !- Wetbulb or DewPoint at Maximum Dry-Bulb {C}
  ,                                       !- Humidity Condition Day Schedule Name
  ,                                       !- Humidity Ratio at Maximum Dry-Bulb {kgWater/kgDryAir}
  ,                                       !- Enthalpy at Maximum Dry-Bulb {J/kg}
  ,                                       !- Daily Wet-Bulb Temperature Range {deltaC}
  100977,                                 !- Barometric Pressure {Pa}
  3.5,                                    !- Wind Speed {m/s}
  170,                                    !- Wind Direction {deg}
  No,                                     !- Rain Indicator
  No,                                     !- Snow Indicator
  No,                                     !- Daylight Saving Time Indicator
  ASHRAETau,                              !- Solar Model Indicator
  ,                                       !- Beam Solar Day Schedule Name
  ,                                       !- Diffuse Solar Day Schedule Name
  0.499,                                  !- ASHRAE Clear Sky Optical Depth for Beam Irradiance (taub) {dimensionless}
  1.97;                                   !- ASHRAE Clear Sky Optical Depth for Diffuse Irradiance (taud) {dimensionless}

SizingPeriod:DesignDay,
  Houston Bush Intercontinental Ann Htg 99.6% Condns DB, !- Name
  1,                                      !- Month
  21,                                     !- Day of Month
  WinterDesignDay,                        !- Day Type
  -1.6,                                   !- Maximum Dry-Bulb Temperature {C}
  0,                                      !- Daily Dry-Bulb Temperature Range {deltaC}
  DefaultMultipliers,                     !- Dry-Bulb Temperature Range Modifier Type
  ,                                       !- Dry-Bulb Temperature Range Modifier Day Schedule Name
  Wetbulb,                                !- Humidity Condition Type
  -1.6,                                   !- Wetbulb or DewPoint at Maximum Dry-Bulb {C}
  ,                                       !- Humidity Condition Day Schedule Name
  ,                                       !- Humidity Ratio at Maximum Dry-Bulb {kgWater/kgDryAir}
  ,                                       !- Enthalpy at Maximum Dry-Bulb {J/kg}
  ,                                       !- Daily Wet-Bulb Temperature Range {deltaC}
  100977,                                 !- Barometric Pressure {Pa}
  2.8,                                    !- Wind Speed {m/s}
  0,                                      !- Wind Direction {deg}
  No,                                     !- Rain Indicator
  No,                                     !- Snow Indicator
  No,                                     !- Daylight Saving Time Indicator
  ASHRAEClearSky,                         !- Solar Model Indicator
  ,                                       !- Beam Solar Day Schedule Name
  ,                                       !- Diffuse Solar Day Schedule Name
  ,                                       !- ASHRAE Clear Sky Optical Depth for Beam Irradiance (taub) {dimensionless}
  ,                                       !- ASHRAE Clear Sky Optical Depth for Diffuse Irradiance (taud) {dimensionless}
  0;                                      !- Sky Clearness


ConvergenceLimits,
  1;                                      !- Minimum System Timestep {minutes}

HeatBalanceAlgorithm,
  ConductionTransferFunction,             !- Algorithm
  200;                                    !- Surface Temperature Upper Limit {C}

RunPeriod,
  Run Period 1,                           !- Name
  1,                                      !- Begin Month
  1,                                      !- Begin Day of Month
  2006,                                   !- Begin Year
  12,                                     !- End Month
  31,                                     !- End Day of Month
  2006,                                   !- End Year
  Sunday,                                 !- Day of Week for Start Day
  No,                                     !- Use Weather File Holidays and Special Days
  No,                                     !- Use Weather File Daylight Saving Period
  No,                                     !- Apply Weekend Holiday Rule
  Yes,                                    !- Use Weather File Rain Indicators
  Yes;                                    !- Use Weather File Snow Indicators

ShadowCalculation,
  AverageOverDaysInFrequency,             !- Calculation Method
  20,                                     !- Calculation Frequency
  15000;                                  !- Maximum Figures in Shadow Overlap Calculations

SurfaceConvectionAlgorithm:Inside,
  TARP;                                   !- Algorithm

SurfaceConvectionAlgorithm:Outside,
  TARP;                                   !- Algorithm

Sizing:Parameters,
  1,                                      !- Heating Sizing Factor
  1;                                      !- Cooling Sizing Factor

ZoneAirContaminantBalance,
  No;                                     !- Carbon Dioxide Concentration

ZoneAirHeatBalanceAlgorithm,
  ThirdOrderBackwardDifference;           !- Algorithm

ZoneCapacitanceMultiplier:ResearchSpecial,
  Zone Capacitance Multiplier Research Special, !- Name
  ,                                       !- Zone or ZoneList Name
  ,                                       !- Temperature Capacity Multiplier
  ,                                       !- Humidity Capacity Multiplier
  ,                                       !- Carbon Dioxide Capacity Multiplier
  ;                                       !- Generic Contaminant Capacity Multiplier

GlobalGeometryRules,
  UpperLeftCorner,                        !- Starting Vertex Position
  Counterclockwise,                       !- Vertex Entry Direction
  Relative,                               !- Coordinate System
  Relative,                               !- Daylighting Reference Point Coordinate System
  Relative;                               !- Rectangular Surface Coordinate System

ScheduleTypeLimits,
  Any Number;                             !- Name
! ##############################################################################
! insert load profile from here
! ##############################################################################
Branch,
  Hot Water Loop Load Profile Demand Branch,         !- Name
  ,                                       !- Pressure Drop Curve Name
  LoadProfile:Plant,                      !- Component Object Type 1
  District Heating Load Profile,          !- Component Name 1
  District Heating Load Profile Inlet Node,                                 !- Component Inlet Node Name 1
  District Heating Load Profile Outlet Node;                                 !- Component Outlet Node Name 1

Branch,
  Chilled Water Loop Load Profile Demand Branch,     !- Name
  ,                                       !- Pressure Drop Curve Name
  LoadProfile:Plant,                      !- Component Object Type 1
  District Cooling Load Profile,          !- Component Name 1
  District Cooling Load Profile Inlet Node,                                 !- Component Inlet Node Name 1
  District Cooling Load Profile Outlet Node;                                 !- Component Outlet Node Name 1

LoadProfile:Plant,
  District Heating Load Profile,          !- Name
  District Heating Load Profile Inlet Node,                                 !- Inlet Node Name
  District Heating Load Profile Outlet Node,                                 !- Outlet Node Name
  Heating Load Profile Schedule, !- Load Schedule Name (From CSV)
  0.3,                                  !- Peak Flow Rate {m3/s}
  ALWAYS_ON;        !- Flow Rate Fraction Schedule Name

LoadProfile:Plant,
  District Cooling Load Profile,          !- Name
  District Cooling Load Profile Inlet Node,                                 !- Inlet Node Name
  District Cooling Load Profile Outlet Node,                                 !- Outlet Node Name
  Cooling Load Profile Schedule, !- Load Schedule Name (From CSV)
  ! District Cooling Load Profile Schedule, !- Load Schedule Name (Fixed)
  0.3,                                  !- Peak Flow Rate {m3/s}
  ALWAYS_ON;        !- Flow Rate Fraction Schedule Name

Schedule:File,
  Heating Load Profile Schedule,                        !- Name
  Any Number,                             !- Schedule Type Limits Name
  sample_loadprofile.csv, !- File Name
  2,                                      !- Column Number
  1,                                      !- Rows to Skip at Top
  ,                                       !- Number of Hours of Data
  Comma,                                  !- Column Separator
  No;                                     !- Interpolate to Timestep

Schedule:File,
  Cooling Load Profile Schedule,                        !- Name
  Any Number,                             !- Schedule Type Limits Name
  sample_loadprofile.csv, !- File Name
  3,                                      !- Column Number
  1,                                      !- Rows to Skip at Top
  ,                                       !- Number of Hours of Data
  Comma,                                  !- Column Separator
  No;                                     !- Interpolate to Timestep

! ######################################################################################
! Outputs
! ######################################################################################

OutputControl:Table:Style,
  HTML;                                   !- Column Separator

Output:Table:SummaryReports,
  AllSummary;                             !- Report Name 1

Output:VariableDictionary,
  IDF,                                    !- Key Field
  Unsorted;                               !- Sort Option

Output:SQLite,
  SimpleAndTabular;                       !- Option Type


Output:Meter:MeterFileOnly,
  PlantLoopHeatingDemand:Facility,        !- Key Name
  hourly;                                 !- Reporting Frequency

Output:Meter:MeterFileOnly,
  PlantLoopCoolingDemand:Facility,        !- Key Name
  hourly;                                 !- Reporting Frequency

Output:Meter:MeterFileOnly,
  Gas:Facility,                           !- Key Name
  Hourly;                                  !- Reporting Frequency

Output:Meter:MeterFileOnly,
  Electricity:Facility,                   !- Key Name
  Hourly;                               !- Reporting Frequency

Output:Meter:MeterFileOnly,
  Electricity:Facility,                   !- Key Name
  Hourly;                                  !- Reporting Frequency

Output:Meter,
  Electricity:Facility,                   !- Key Name
  Hourly;                               !- Reporting Frequency

Output:Meter,
  Gas:Facility,                           !- Key Name
  Hourly;                               !- Reporting Frequency

Output:Meter,
    Electricity:Facility,     !- Key Name
    Annual;                   !- Reporting Frequency

Output:Meter,
    Gas:Facility,             !- Key Name
    Annual;                   !- Reporting Frequency

! ##############################################################################
! insert plant loop objects from here
! ##############################################################################


!***** Schedules *****
  Schedule:Compact,
    ALWAYS_ON,               !- Name
    On/Off,                  !- Schedule Type Limits Name
    Through: 12/31,          !- Field 1
    For: AllDays,            !- Field 2
    Until: 24:00,1;          !- Field 3

  Schedule:Compact,
    ALWAYS_OFF,              !- Name
    On/Off,                  !- Schedule Type Limits Name
    Through: 12/31,          !- Field 1
    For: AllDays,            !- Field 2
    Until: 24:00,0;          !- Field 3
  
  ScheduleTypeLimits,
    Temperature,             !- Name
    -60,                     !- Lower Limit Value
    200,                     !- Upper Limit Value
    CONTINUOUS,              !- Numeric Type
    Temperature;             !- Unit Type

  ScheduleTypeLimits,
    On/Off,                  !- Name
    0,                       !- Lower Limit Value
    1,                       !- Upper Limit Value
    DISCRETE;                !- Numeric Type

  Schedule:Compact,
    PlantOnSched,            !- Name
    On/Off,                  !- Schedule Type Limits Name
    Through: 12/31,          !- Field 1
    For: AllDays,            !- Field 2
    Until: 24:00,1;          !- Field 3



!***** PLANT Loop: SHWSys1 *****


!***** PLANT Loop: MICROCHP SENERTECH *****

  PlantLoop,
    MICROCHP SENERTECH,      !- Name
    WATER,                   !- Fluid Type
    ,                        !- User Defined Fluid Type
    MICROCHP SENERTECH Loop Operation Scheme List,  !- Plant Equipment Operation Scheme Name
    MICROCHP SENERTECH Supply Outlet Node,  !- Loop Temperature Setpoint Node Name
    98.0,                    !- Maximum Loop Temperature {C}
    10.0,                    !- Minimum Loop Temperature {C}
    0.0010,                  !- Maximum Loop Flow Rate {m3/s}
    0.0,                     !- Minimum Loop Flow Rate {m3/s}
    AUTOSIZE,                !- Plant Loop Volume {m3}
    MICROCHP SENERTECH Supply Inlet Node,  !- Plant Side Inlet Node Name
    MICROCHP SENERTECH Supply Outlet Node,  !- Plant Side Outlet Node Name
    MICROCHP SENERTECH Supply Branches,  !- Plant Side Branch List Name
    MICROCHP SENERTECH Supply Connectors,  !- Plant Side Connector List Name
    MICROCHP SENERTECH Demand Inlet Node,  !- Demand Side Inlet Node Name
    MICROCHP SENERTECH Demand Outlet Node,  !- Demand Side Outlet Node Name
    MICROCHP SENERTECH Demand Branches,  !- Demand Side Branch List Name
    MICROCHP SENERTECH Demand Connectors,  !- Demand Side Connector List Name
    OPTIMAL;                 !- Load Distribution Scheme

  Sizing:Plant,
    MICROCHP SENERTECH,      !- Plant or Condenser Loop Name
    HEATING,                 !- Loop Type
    70,                      !- Design Loop Exit Temperature {C}
    10.0;                    !- Loop Design Temperature Difference {deltaC}

  SetpointManager:Scheduled,
    MICROCHP SENERTECH Loop Setpoint Manager,  !- Name
    Temperature,             !- Control Variable
    MICROCHP SENERTECH Loop Setpoint Sched,  !- Schedule Name
    MICROCHP SENERTECH Supply Outlet Node;  !- Setpoint Node or NodeList Name

  Schedule:Compact,
    MICROCHP SENERTECH Loop Setpoint Sched,  !- Name
    Temperature,             !- Schedule Type Limits Name
    Through: 12/31,          !- Field 1
    For: AllDays,            !- Field 2
    Until: 24:00,70.0000;    !- Field 3

  PlantEquipmentOperationSchemes,
    MICROCHP SENERTECH Loop Operation Scheme List,  !- Name
    PlantEquipmentOperation:HeatingLoad,  !- Control Scheme 1 Object Type
    MICROCHP SENERTECH Operation Scheme,  !- Control Scheme 1 Name
    ALWAYS_ON;               !- Control Scheme 1 Schedule Name

  PlantEquipmentOperation:HeatingLoad,
    MICROCHP SENERTECH Operation Scheme,  !- Name
    0,                       !- Load Range 1 Lower Limit {W}
    1000000,                 !- Load Range 1 Upper Limit {W}
    MICROCHP SENERTECH Equipment List;  !- Range 1 Equipment List Name

  PlantEquipmentList,
    MICROCHP SENERTECH Equipment List,  !- Name
    Generator:MicroCHP,      !- Equipment 1 Object Type
    MicroCoGen1;             !- Equipment 1 Name

  BranchList,
    MICROCHP SENERTECH Supply Branches,  !- Name
    MICROCHP SENERTECH Supply Inlet Branch,  !- Branch 1 Name
    MICROCHP SENERTECH Supply Equipment Branch,  !- Branch 2 Name
    ! SOFC Supply Equipment Branch,  !- Branch 3 Name
    MICROCHP SENERTECH Supply Equipment Bypass Branch,  !- Branch 4 Name
    MICROCHP SENERTECH Supply Outlet Branch;  !- Branch 5 Name

  ConnectorList,
    MICROCHP SENERTECH Supply Connectors,  !- Name
    Connector:Splitter,      !- Connector 1 Object Type
    MICROCHP SENERTECH Supply Splitter,  !- Connector 1 Name
    Connector:Mixer,         !- Connector 2 Object Type
    MICROCHP SENERTECH Supply Mixer;  !- Connector 2 Name

  Connector:Splitter,
    MICROCHP SENERTECH Supply Splitter,  !- Name
    MICROCHP SENERTECH Supply Inlet Branch,  !- Inlet Branch Name
    MICROCHP SENERTECH Supply Equipment Branch,  !- Outlet Branch 1 Name
    ! SOFC Supply Equipment Branch,  !- Outlet Branch 2 Name
    MICROCHP SENERTECH Supply Equipment Bypass Branch;  !- Outlet Branch 3 Name

  Connector:Mixer,
    MICROCHP SENERTECH Supply Mixer,  !- Name
    MICROCHP SENERTECH Supply Outlet Branch,  !- Outlet Branch Name
    MICROCHP SENERTECH Supply Equipment Branch,  !- Inlet Branch 1 Name
    ! SOFC Supply Equipment Branch,  !- Inlet Branch 2 Name
    MICROCHP SENERTECH Supply Equipment Bypass Branch;  !- Inlet Branch 3 Name

  Branch,
    MICROCHP SENERTECH Supply Inlet Branch,  !- Name
    ,                        !- Pressure Drop Curve Name
    Pump:VariableSpeed,      !- Component 1 Object Type
    MICROCHP SENERTECH Pump, !- Component 1 Name
    MICROCHP SENERTECH Supply Inlet Node,  !- Component 1 Inlet Node Name
    MICROCHP SENERTECH Pump-MicroCoGen1NodeviaConnector;  !- Component 1 Outlet Node Name

  Branch,
    MICROCHP SENERTECH Supply Equipment Branch,  !- Name
    ,                        !- Pressure Drop Curve Name
    Generator:MicroCHP,      !- Component 1 Object Type
    MicroCoGen1,             !- Component 1 Name
    MICROCHP SENERTECH Pump-MicroCoGen1Node,  !- Component 1 Inlet Node Name
    MICROCHP SENERTECH Supply Equipment Outlet Node;  !- Component 1 Outlet Node Name

  Pump:VariableSpeed,
    MICROCHP SENERTECH Pump, !- Name
    MICROCHP SENERTECH Supply Inlet Node,  !- Inlet Node Name
    MICROCHP SENERTECH Pump-MicroCoGen1NodeviaConnector,  !- Outlet Node Name
    0.0008,                  !- Design Maximum Flow Rate {m3/s}
    20000,                   !- Design Pump Head {Pa}
    140.0000,                !- Design Power Consumption {W}
    0.87,                    !- Motor Efficiency
    0.0,                     !- Fraction of Motor Inefficiencies to Fluid Stream
    0,                       !- Coefficient 1 of the Part Load Performance Curve
    1,                       !- Coefficient 2 of the Part Load Performance Curve
    0,                       !- Coefficient 3 of the Part Load Performance Curve
    0,                       !- Coefficient 4 of the Part Load Performance Curve
    0.0,                     !- Design Minimum Flow Rate {m3/s}
    INTERMITTENT;            !- Pump Control Type

  Generator:MicroCHP,
    MicroCoGen1,             !- Name
    SENERTECH5_5KW,          !- Performance Parameters Name
    ,        !- Zone Name
    MICROCHP SENERTECH Pump-MicroCoGen1Node,  !- Cooling Water Inlet Node Name
    MICROCHP SENERTECH Supply Equipment Outlet Node,  !- Cooling Water Outlet Node Name
    MicroCoGen1 air inlet node,  !- Air Inlet Node Name
    ,                        !- Air Outlet Node Name
    NATURALGAS,              !- Generator Fuel Supply Name
    ALWAYS_ON;               !- Availability Schedule Name

  Generator:MicroCHP:NonNormalizedParameters,
    SENERTECH5_5KW,          !- Name
    5500.0000,               !- Maximum Electric Power {W}
    0.0000,                  !- Minimum Electric Power {W}
    0.0000,                  !- Minimum Cooling Water Flow Rate {kg/s}
    80.0000,                 !- Maximum Cooling Water Temperature {C}
    SenerTechElEff,          !- Electrical Efficiency Curve Name
    SenerTechThermEff,       !- Thermal Efficiency Curve Name
    InternalControl,         !- Cooling Water Flow Rate Mode
    SenerTechCoolWaterflow,  !- Cooling Water Flow Rate Curve Name
    SenerTechAirFlow,        !- Air Flow Rate Curve Name
    1000000000.0000,         !- Maximum Net Electrical Power Rate of Change {W/s}
    1000000000.0000,         !- Maximum Fuel Flow Rate of Change {kg/s2}
    741.0000,                !- Heat Exchanger U-Factor Times Area Value {W/K}
    13.7000,                 !- Skin Loss U-Factor Times Area Value {W/K}
    0.5000,                  !- Skin Loss Radiative Fraction
    63605.6000,              !- Aggregated Thermal Mass of Energy Conversion Portion of Generator {W/K}
    1000.7000,               !- Aggregated Thermal Mass of Heat Recovery Portion of Generator {W/K}
    0.0000,                  !- Standby Power {W}
    TimeDelay,               !- Warm Up Mode
    ,                        !- Warm Up Fuel Flow Rate Coefficient
    ,                        !- Nominal Engine Operating Temperature {C}
    ,                        !- Warm Up Power Coefficient
    ,                        !- Warm Up Fuel Flow Rate Limit Ratio
    60.0000,                 !- Warm Up Delay Time {s}
    0.0000,                  !- Cool Down Power {W}
    60.0000,                 !- Cool Down Delay Time {s}
    OptionalCoolDown;        !- Restart Mode

  Curve:Quadratic,
    SenerTechAirFlow,        !- Name
    0.0000,                  !- Coefficient1 Constant
    2.0000,                  !- Coefficient2 x
    -10000.0000,             !- Coefficient3 x**2
    0.0000,                  !- Minimum Value of x
    1000000000000.0000;      !- Maximum Value of x

  Curve:Biquadratic,
    SenerTechCoolWaterflow,  !- Name
    0.4000,                  !- Coefficient1 Constant
    0.0000,                  !- Coefficient2 x
    0.0000,                  !- Coefficient3 x**2
    0.0000,                  !- Coefficient4 y
    0.0000,                  !- Coefficient5 y**2
    0.0000,                  !- Coefficient6 x*y
    0.0000,                  !- Minimum Value of x
    1.0E12,                  !- Maximum Value of x
    0.0000,                  !- Minimum Value of y
    1.0E12;                  !- Maximum Value of y

  Curve:Triquadratic,
    SenerTechThermEff,       !- Name
    0.6600,                  !- Coefficient1 Constant
    0.0000,                  !- Coefficient2 x**2
    0.0000,                  !- Coefficient3 x
    0.0000,                  !- Coefficient4 y**2
    0.0000,                  !- Coefficient5 y
    0.0000,                  !- Coefficient6 z**2
    0.0000,                  !- Coefficient7 z
    0.0000,                  !- Coefficient8 x**2*y**2
    0.0000,                  !- Coefficient9 x*y
    0.0000,                  !- Coefficient10 x*y**2
    0.0000,                  !- Coefficient11 x**2*y
    0.0000,                  !- Coefficient12 x**2*z**2
    0.0000,                  !- Coefficient13 x*z
    0.0000,                  !- Coefficient14 x*z**2
    0.0000,                  !- Coefficient15 x**2*z
    0.0000,                  !- Coefficient16 y**2*z**2
    0.0000,                  !- Coefficient17 y*z
    0.0000,                  !- Coefficient18 y*z**2
    0.0000,                  !- Coefficient19 y**2*z
    0.0000,                  !- Coefficient20 x**2*y**2*z**2
    0.0000,                  !- Coefficient21 x**2*y**2*z
    0.0000,                  !- Coefficient22 x**2*y*z**2
    0.0000,                  !- Coefficient23 x*y**2*z**2
    0.0000,                  !- Coefficient24 x**2*y*z
    0.0000,                  !- Coefficient25 x*y**2*z
    0.0000,                  !- Coefficient26 x*y*z**2
    0.0000,                  !- Coefficient27 x*y*z
    0.0000,                  !- Minimum Value of x
    1000000000.0000,         !- Maximum Value of x
    0.0000,                  !- Minimum Value of y
    1000000000.0000,         !- Maximum Value of y
    0.0000,                  !- Minimum Value of z
    1000000000.0000;         !- Maximum Value of z

  Curve:Triquadratic,
    SenerTechElEff,          !- Name
    0.2700,                  !- Coefficient1 Constant
    0.0000,                  !- Coefficient2 x**2
    0.0000,                  !- Coefficient3 x
    0.0000,                  !- Coefficient4 y**2
    0.0000,                  !- Coefficient5 y
    0.0000,                  !- Coefficient6 z**2
    0.0000,                  !- Coefficient7 z
    0.0000,                  !- Coefficient8 x**2*y**2
    0.0000,                  !- Coefficient9 x*y
    0.0000,                  !- Coefficient10 x*y**2
    0.0000,                  !- Coefficient11 x**2*y
    0.0000,                  !- Coefficient12 x**2*z**2
    0.0000,                  !- Coefficient13 x*z
    0.0000,                  !- Coefficient14 x*z**2
    0.0000,                  !- Coefficient15 x**2*z
    0.0000,                  !- Coefficient16 y**2*z**2
    0.0000,                  !- Coefficient17 y*z
    0.0000,                  !- Coefficient18 y*z**2
    0.0000,                  !- Coefficient19 y**2*z
    0.0000,                  !- Coefficient20 x**2*y**2*z**2
    0.0000,                  !- Coefficient21 x**2*y**2*z
    0.0000,                  !- Coefficient22 x**2*y*z**2
    0.0000,                  !- Coefficient23 x*y**2*z**2
    0.0000,                  !- Coefficient24 x**2*y*z
    0.0000,                  !- Coefficient25 x*y**2*z
    0.0000,                  !- Coefficient26 x*y*z**2
    0.0000,                  !- Coefficient27 x*y*z
    0.0000,                  !- Minimum Value of x
    1000000000.0000,         !- Maximum Value of x
    0.0000,                  !- Minimum Value of y
    1000000000.0000,         !- Maximum Value of y
    0.0000,                  !- Minimum Value of z
    1000000000.0000;         !- Maximum Value of z

  Generator:FuelSupply,
    NATURALGAS,              !- Name
    TemperatureFromAirNode,  !- Fuel Temperature Modeling Mode
    MicroCoGen1 air inlet node,  !- Fuel Temperature Reference Node Name
    ,                        !- Fuel Temperature Schedule Name
    NullCubic,               !- Compressor Power Multiplier Function of Fuel Rate Curve Name
    1.0000,                  !- Compressor Heat Loss Factor
    GaseousConstituents,     !- Fuel Type
    ,                        !- Liquid Generic Fuel Lower Heating Value {kJ/kg}