!- Windows Line endings 

Version,
    9.1;                      !- Version Identifier

SimulationControl,
    No,                       !- Do Zone Sizing Calculation
    Yes,                      !- Do System Sizing Calculation
    Yes,                      !- Do Plant Sizing Calculation
    No,                       !- Run Simulation for Sizing Periods
    Yes;                      !- Run Simulation for Weather File Run Periods

Building,
    -LargeOfficeDetailed-ASHRAE 169-2006-2A created: 2019-07-15 15:01:46 -0700,    !- Name
    0,                        !- North Axis
    City,                     !- Terrain
    0.04,                     !- Loads Convergence Tolerance Value
    0.2,                      !- Temperature Convergence Tolerance Value
    FullInteriorAndExterior,    !- Solar Distribution
    25,                       !- Maximum Number of Warmup Days
    6;                        !- Minimum Number of Warmup Days

Timestep,
    6;                        !- Number of Timesteps per Hour

SizingPeriod:DesignDay,
    Houston Bush Intercontinental Ann Clg .4% Condns DB=>MWB,    !- Name
    7,                        !- Month
    21,                       !- Day of Month
    SummerDesignDay,          !- Day Type
    36,                       !- Maximum DryBulb Temperature
    10.1,                     !- Daily DryBulb Temperature Range
    DefaultMultipliers,       !- DryBulb Temperature Range Modifier Type
    ,                         !- DryBulb Temperature Range Modifier Day Schedule Name
    Wetbulb,                  !- Humidity Condition Type
    24.8,                     !- Wetbulb or DewPoint at Maximum DryBulb
    ,                         !- Humidity Condition Day Schedule Name
    ,                         !- Humidity Ratio at Maximum DryBulb
    ,                         !- Enthalpy at Maximum DryBulb
    ,                         !- Daily WetBulb Temperature Range
    100977,                   !- Barometric Pressure
    3.5,                      !- Wind Speed
    170,                      !- Wind Direction
    No,                       !- Rain Indicator
    No,                       !- Snow Indicator
    No,                       !- Daylight Saving Time Indicator
    ASHRAETau,                !- Solar Model Indicator
    ,                         !- Beam Solar Day Schedule Name
    ,                         !- Diffuse Solar Day Schedule Name
    0.499,                    !- ASHRAE Clear Sky Optical Depth for Beam Irradiance taub
    1.97;                     !- ASHRAE Clear Sky Optical Depth for Diffuse Irradiance taud

SizingPeriod:DesignDay,
    Houston Bush Intercontinental Ann Htg 99.6% Condns DB,    !- Name
    1,                        !- Month
    21,                       !- Day of Month
    WinterDesignDay,          !- Day Type
    -1.6,                     !- Maximum DryBulb Temperature
    0,                        !- Daily DryBulb Temperature Range
    DefaultMultipliers,       !- DryBulb Temperature Range Modifier Type
    ,                         !- DryBulb Temperature Range Modifier Day Schedule Name
    Wetbulb,                  !- Humidity Condition Type
    -1.6,                     !- Wetbulb or DewPoint at Maximum DryBulb
    ,                         !- Humidity Condition Day Schedule Name
    ,                         !- Humidity Ratio at Maximum DryBulb
    ,                         !- Enthalpy at Maximum DryBulb
    ,                         !- Daily WetBulb Temperature Range
    100977,                   !- Barometric Pressure
    2.8,                      !- Wind Speed
    0,                        !- Wind Direction
    No,                       !- Rain Indicator
    No,                       !- Snow Indicator
    No,                       !- Daylight Saving Time Indicator
    ASHRAEClearSky,           !- Solar Model Indicator
    ,                         !- Beam Solar Day Schedule Name
    ,                         !- Diffuse Solar Day Schedule Name
    ,                         !- ASHRAE Clear Sky Optical Depth for Beam Irradiance taub
    ,                         !- ASHRAE Clear Sky Optical Depth for Diffuse Irradiance taud
    0;                        !- Sky Clearness

RunPeriod,
    Run Period 1,             !- Name
    1,                        !- Begin Month
    1,                        !- Begin Day of Month
    2006,                     !- Begin Year
    12,                       !- End Month
    31,                       !- End Day of Month
    2006,                     !- End Year
    Sunday,                   !- Day of Week for Start Day
    No,                       !- Use Weather File Holidays and Special Days
    No,                       !- Use Weather File Daylight Saving Period
    No,                       !- Apply Weekend Holiday Rule
    Yes,                      !- Use Weather File Rain Indicators
    Yes;                      !- Use Weather File Snow Indicators

RunPeriodControl:DaylightSavingTime,
    2nd Sunday in March,      !- Start Date
    1st Sunday in November;    !- End Date

ScheduleTypeLimits,
    Temperature,              !- Name
    ,                         !- Lower Limit Value
    ,                         !- Upper Limit Value
    Continuous,               !- Numeric Type
    temperature;              !- Unit Type

ScheduleTypeLimits,
    Any Number;               !- Name

Schedule:Compact,
    Hot_Water_Temperature,    !- Name
    Temperature,              !- Schedule Type Limits Name
    Through: 12/31,           !- Field 1
    For: AllDays,             !- Field 2
    Until: 24:00,             !- Field 3
    67;                       !- Field 4

Schedule:Compact,
    CHILLED_WATER_TEMPERATURE,    !- Name
    Temperature,              !- Schedule Type Limits Name
    Through: 12/31,           !- Field 1
    For: AllDays,             !- Field 2
    Until: 24:00,             !- Field 3
    6.7;                      !- Field 4

Schedule:Constant,
    Always On Discrete hvac_library,    !- Name
    OnOff hvac_library,       !- Schedule Type Limits Name
    1;                        !- Hourly Value

Schedule:Constant,
    Always On Discrete,       !- Name
    OnOff,                    !- Schedule Type Limits Name
    1;                        !- Hourly Value

Schedule:File,
    Heating Load Profile Schedule,    !- Name
    Any Number,               !- Schedule Type Limits Name
    sample_loadprofile.csv,    !- File Name
    2,                        !- Column Number
    1,                        !- Rows to Skip at Top
    ,                         !- Number of Hours of Data
    Comma,                    !- Column Separator
    No;                       !- Interpolate to Timestep

Schedule:File,
    Cooling Load Profile Schedule,    !- Name
    Any Number,               !- Schedule Type Limits Name
    sample_loadprofile.csv,    !- File Name
    3,                        !- Column Number
    1,                        !- Rows to Skip at Top
    ,                         !- Number of Hours of Data
    Comma,                    !- Column Separator
    No;                       !- Interpolate to Timestep

GlobalGeometryRules,
    UpperLeftCorner,          !- Starting Vertex Position
    Counterclockwise,         !- Vertex Entry Direction
    Relative,                 !- Coordinate System
    Relative,                 !- Daylighting Reference Point Coordinate System
    Relative;                 !- Rectangular Surface Coordinate System

Sizing:Plant,
    HW Loop,                  !- Plant or Condenser Loop Name
    Heating,                  !- Loop Type
    82,                       !- Design Loop Exit Temperature
    11,                       !- Loop Design Temperature Difference
    NonCoincident,            !- Sizing Option
    1,                        !- Zone Timesteps in Averaging Window
    None;                     !- Coincident Sizing Factor Mode

Sizing:Plant,
    ChW Loop,                 !- Plant or Condenser Loop Name
    Cooling,                  !- Loop Type
    7.22,                     !- Design Loop Exit Temperature
    6.67,                     !- Loop Design Temperature Difference
    NonCoincident,            !- Sizing Option
    1,                        !- Zone Timesteps in Averaging Window
    None;                     !- Coincident Sizing Factor Mode

Sizing:Plant,
    CndW Loop,                !- Plant or Condenser Loop Name
    Condenser,                !- Loop Type
    29.4,                     !- Design Loop Exit Temperature
    5.6,                      !- Loop Design Temperature Difference
    NonCoincident,            !- Sizing Option
    1,                        !- Zone Timesteps in Averaging Window
    None;                     !- Coincident Sizing Factor Mode

Branch,
    HW Loop Supply Circ Pump Branch,    !- Name
    ,                         !- Pressure Drop Curve Name
    Pump:VariableSpeed,       !- Component 1 Object Type
    HW Loop VSD Pump,         !- Component 1 Name
    HW Loop Supply Inlet Node,    !- Component 1 Inlet Node Name
    HW Loop Supply Side HW Loop VSD Pump Outlet Node;    !- Component 1 Outlet Node Name

Branch,
    HW Loop Supply CentralHeatPumpSystem Branch,    !- Name
    ,                         !- Pressure Drop Curve Name
    CentralHeatPumpSystem,    !- Component 1 Object Type
    CentralHeatPumpSystem,    !- Component 1 Name
    HW Loop Supply Side CentralHeatPumpSystem Inlet Node,    !- Component 1 Inlet Node Name
    HW Loop Supply Side CentralHeatPumpSystem Outlet Node;    !- Component 1 Outlet Node Name

Branch,
    HW Loop Supply Outlet Branch,    !- Name
    ,                         !- Pressure Drop Curve Name
    Pipe:Adiabatic,           !- Component 1 Object Type
    HW Loop Supply Outlet Pipe,    !- Component 1 Name
    HW Loop Supply Outlet Pipe Node,    !- Component 1 Inlet Node Name
    HW Loop Supply Outlet Node;    !- Component 1 Outlet Node Name

Branch,
    HW Loop Demand Inlet Branch,    !- Name
    ,                         !- Pressure Drop Curve Name
    Pipe:Adiabatic,           !- Component 1 Object Type
    HW Loop Demand Inlet Pipe,    !- Component 1 Name
    HW Loop Demand Inlet Node,    !- Component 1 Inlet Node Name
    HW Loop Demand Inlet Pipe Node;    !- Component 1 Outlet Node Name

Branch,
    HW Loop Demand LoadProfie Branch,    !- Name
    ,                         !- Pressure Drop Curve Name
    LoadProfile:Plant,        !- Component 1 Object Type
    District Heating Load Profile,    !- Component 1 Name
    Heating LoadProfile Inlet Node,    !- Component 1 Inlet Node Name
    Heating LoadProfile Outlet Node;    !- Component 1 Outlet Node Name

Branch,
    HW Loop Demand Bypass Branch,    !- Name
    ,                         !- Pressure Drop Curve Name
    Pipe:Adiabatic,           !- Component 1 Object Type
    HW Loop Demand Bypass Pipe,    !- Component 1 Name
    HW Loop Demand Bypass Pipe Inlet Node,    !- Component 1 Inlet Node Name
    HW Loop Demand Bypass Pipe Outlet Node;    !- Component 1 Outlet Node Name

Branch,
    HW Loop Demand Outlet Branch,    !- Name
    ,                         !- Pressure Drop Curve Name
    Pipe:Adiabatic,           !- Component 1 Object Type
    HW Loop Demand Outlet Pipe,    !- Component 1 Name
    HW Loop Demand Outlet Pipe Node,    !- Component 1 Inlet Node Name
    HW Loop Demand Outlet Node;    !- Component 1 Outlet Node Name

Branch,
    ChW Loop Supply Circ Pump Branch,    !- Name
    ,                         !- Pressure Drop Curve Name
    Pump:VariableSpeed,       !- Component 1 Object Type
    ChW Loop VSD Pump,        !- Component 1 Name
    ChW Loop Supply Inlet Node,    !- Component 1 Inlet Node Name
    ChW Loop Supply Side ChW Loop VSD Pump Outlet Node;    !- Component 1 Outlet Node Name

Branch,
    ChW Loop Supply CentralHeatPumpSystem Branch,    !- Name
    ,                         !- Pressure Drop Curve Name
    CentralHeatPumpSystem,    !- Component 1 Object Type
    CentralHeatPumpSystem,    !- Component 1 Name
    ChW Loop Supply Side CentralHeatPumpSystem Inlet Node,    !- Component 1 Inlet Node Name
    ChW Loop Supply Side CentralHeatPumpSystem Outlet Node;    !- Component 1 Outlet Node Name

Branch,
    ChW Loop Supply Outlet Branch,    !- Name
    ,                         !- Pressure Drop Curve Name
    Pipe:Adiabatic,           !- Component 1 Object Type
    ChW Loop Supply Outlet Pipe,    !- Component 1 Name
    ChW Loop Supply Outlet Pipe Node,    !- Component 1 Inlet Node Name
    ChW Loop Supply Outlet Node;    !- Component 1 Outlet Node Name

Branch,
    ChW Loop Demand Inlet Branch,    !- Name
    ,                         !- Pressure Drop Curve Name
    Pipe:Adiabatic,           !- Component 1 Object Type
    ChW Loop Demand Inlet Pipe,    !- Component 1 Name
    ChW Loop Demand Inlet Node,    !- Component 1 Inlet Node Name
    ChW Loop Demand Inlet Pipe Node;    !- Component 1 Outlet Node Name

Branch,
    ChW Loop Demand LoadProfile Branch,    !- Name
    ,                         !- Pressure Drop Curve Name
    LoadProfile:Plant,        !- Component 1 Object Type
    District Cooling Load Profile,    !- Component 1 Name
    Cooling LoadProfile Inlet Node,    !- Component 1 Inlet Node Name
    Cooling LoadProfile Outlet Node;    !- Component 1 Outlet Node Name

Branch,
    ChW Loop Demand Bypass Branch,    !- Name
    ,                         !- Pressure Drop Curve Name
    Pipe:Adiabatic,           !- Component 1 Object Type
    ChW Loop Demand Bypass Pipe,    !- Component 1 Name
    ChW Loop Demand Bypass Pipe Inlet Node,    !- Component 1 Inlet Node Name
    ChW Loop Demand Bypass Pipe Outlet Node;    !- Component 1 Outlet Node Name

Branch,
    ChW Loop Demand Outlet Branch,    !- Name
    ,                         !- Pressure Drop Curve Name
    Pipe:Adiabatic,           !- Component 1 Object Type
    ChW Loop Demand Outlet Pipe,    !- Component 1 Name
    ChW Loop Demand Outlet Pipe Node,    !- Component 1 Inlet Node Name
    ChW Loop Demand Outlet Node;    !- Component 1 Outlet Node Name

Branch,
    CndW Loop Supply Circ Pump Branch,    !- Name
    ,                         !- Pressure Drop Curve Name
    Pump:VariableSpeed,       !- Component 1 Object Type
    CndW Loop VSD Pump,       !- Component 1 Name
    CndW Loop Supply Inlet Node,    !- Component 1 Inlet Node Name
    CndW Loop Supply Side CndW Loop VSD Pump Outlet Node;    !- Component 1 Outlet Node Name

Branch,
    CndW Loop Supply CoolingTower Branch,    !- Name
    ,                         !- Pressure Drop Curve Name
    CoolingTower:SingleSpeed,    !- Component 1 Object Type
    CndW Loop CoolingTowerSingleSpeed,    !- Component 1 Name
    CndW Loop Supply Side CndW Loop CoolingTowerSingleSpeed Inlet Node,    !- Component 1 Inlet Node Name
    CndW Loop Supply Side CndW Loop CoolingTowerSingleSpeed Outlet Node;    !- Component 1 Outlet Node Name

Branch,
    CndW Loop Supply Outlet Branch,    !- Name
    ,                         !- Pressure Drop Curve Name
    Pipe:Adiabatic,           !- Component 1 Object Type
    CndW Loop Supply Outlet Pipe,    !- Component 1 Name
    CndW Loop Supply Outlet Pipe Node,    !- Component 1 Inlet Node Name
    CndW Loop Supply Outlet Node;    !- Component 1 Outlet Node Name

Branch,
    CndW Loop Demand Inlet Branch,    !- Name
    ,                         !- Pressure Drop Curve Name
    Pipe:Adiabatic,           !- Component 1 Object Type
    CndW Loop Demand Inlet Pipe,    !- Component 1 Name
    CndW Loop Demand Inlet Node,    !- Component 1 Inlet Node Name
    CndW Loop Demand Inlet Pipe Node;    !- Component 1 Outlet Node Name

Branch,
    CndW Loop Demand Branch - CentralHeatPumpSystem,    !- Name
    ,                         !- Pressure Drop Curve Name
    CentralHeatPumpSystem,    !- Component 1 Object Type
    CentralHeatPumpSystem,    !- Component 1 Name
    CndW Loop Demand Side CentralHeatPumpSystem Inlet Node,    !- Component 1 Inlet Node Name
    CndW Loop Demand Side CentralHeatPumpSystem Outlet Node;    !- Component 1 Outlet Node Name

Branch,
    CndW Loop Demand Bypass Branch,    !- Name
    ,                         !- Pressure Drop Curve Name
    Pipe:Adiabatic,           !- Component 1 Object Type
    CndW Loop Demand Bypass Pipe,    !- Component 1 Name
    CndW Loop Demand Bypass Pipe Inlet Node,    !- Component 1 Inlet Node Name
    CndW Loop Demand Bypass Pipe Outlet Node;    !- Component 1 Outlet Node Name

Branch,
    CndW Loop Demand Outlet Branch,    !- Name
    ,                         !- Pressure Drop Curve Name
    Pipe:Adiabatic,           !- Component 1 Object Type
    CndW Loop Demand Outlet Pipe,    !- Component 1 Name
    CndW Loop Demand Outlet Pipe Node,    !- Component 1 Inlet Node Name
    CndW Loop Demand Outlet Node;    !- Component 1 Outlet Node Name

BranchList,
    HW Loop Supply Branches,    !- Name
    HW Loop Supply Circ Pump Branch,    !- Branch 1 Name
    HW Loop Supply CentralHeatPumpSystem Branch,    !- Branch 2 Name
    HW Loop Supply Outlet Branch;    !- Branch 3 Name

BranchList,
    HW Loop Demand Branches,    !- Name
    HW Loop Demand Inlet Branch,    !- Branch 1 Name
    HW Loop Demand LoadProfie Branch,    !- Branch 2 Name
    HW Loop Demand Bypass Branch,    !- Branch 3 Name
    HW Loop Demand Outlet Branch;    !- Branch 4 Name

BranchList,
    ChW Loop Supply Branches,    !- Name
    ChW Loop Supply Circ Pump Branch,    !- Branch 1 Name
    ChW Loop Supply CentralHeatPumpSystem Branch,    !- Branch 2 Name
    ChW Loop Supply Outlet Branch;    !- Branch 3 Name

BranchList,
    ChW Loop Demand Branches,    !- Name
    ChW Loop Demand Inlet Branch,    !- Branch 1 Name
    ChW Loop Demand LoadProfile Branch,    !- Branch 2 Name
    ChW Loop Demand Bypass Branch,    !- Branch 3 Name
    ChW Loop Demand Outlet Branch;    !- Branch 4 Name

BranchList,
    CndW Loop Supply Branches,    !- Name
    CndW Loop Supply Circ Pump Branch,    !- Branch 1 Name
    CndW Loop Supply CoolingTower Branch,    !- Branch 2 Name
    CndW Loop Supply Outlet Branch;    !- Branch 3 Name

BranchList,
    CndW Loop Demand Branches,    !- Name
    CndW Loop Demand Inlet Branch,    !- Branch 1 Name
    CndW Loop Demand Branch - CentralHeatPumpSystem,    !- Branch 2 Name
    CndW Loop Demand Bypass Branch,    !- Branch 3 Name
    CndW Loop Demand Outlet Branch;    !- Branch 4 Name

Connector:Splitter,
    HW Loop Supply Splitter,    !- Name
    HW Loop Supply Circ Pump Branch,    !- Inlet Branch Name
    HW Loop Supply CentralHeatPumpSystem Branch;    !- Outlet Branch 1 Name

Connector:Splitter,
    HW Loop Demand Splitter,    !- Name
    HW Loop Demand Inlet Branch,    !- Inlet Branch Name
    HW Loop Demand LoadProfie Branch,    !- Outlet Branch 1 Name
    HW Loop Demand Bypass Branch;    !- Outlet Branch 2 Name

Connector:Splitter,
    ChW Loop Supply Splitter,    !- Name
    ChW Loop Supply Circ Pump Branch,    !- Inlet Branch Name
    ChW Loop Supply CentralHeatPumpSystem Branch;    !- Outlet Branch 1 Name

Connector:Splitter,
    ChW Loop Demand Splitter,    !- Name
    ChW Loop Demand Inlet Branch,    !- Inlet Branch Name
    ChW Loop Demand LoadProfile Branch,    !- Outlet Branch 1 Name
    ChW Loop Demand Bypass Branch;    !- Outlet Branch 2 Name

Connector:Splitter,
    CndW Loop Supply Splitter,    !- Name
    CndW Loop Supply Circ Pump Branch,    !- Inlet Branch Name
    CndW Loop Supply CoolingTower Branch;    !- Outlet Branch 1 Name

Connector:Splitter,
    CndW Loop Demand Splitter,    !- Name
    CndW Loop Demand Inlet Branch,    !- Inlet Branch Name
    CndW Loop Demand Branch - CentralHeatPumpSystem,    !- Outlet Branch 1 Name
    CndW Loop Demand Bypass Branch;    !- Outlet Branch 2 Name

Connector:Mixer,
    HW Loop Supply Mixer,     !- Name
    HW Loop Supply Outlet Branch,    !- Outlet Branch Name
    HW Loop Supply CentralHeatPumpSystem Branch;    !- Inlet Branch 1 Name

Connector:Mixer,
    HW Loop Demand Mixer,     !- Name
    HW Loop Demand Outlet Branch,    !- Outlet Branch Name
    HW Loop Demand LoadProfie Branch,    !- Inlet Branch 1 Name
    HW Loop Demand Bypass Branch;    !- Inlet Branch 2 Name

Connector:Mixer,
    ChW Loop Supply Mixer,    !- Name
    ChW Loop Supply Outlet Branch,    !- Outlet Branch Name
    ChW Loop Supply CentralHeatPumpSystem Branch;    !- Inlet Branch 1 Name

Connector:Mixer,
    ChW Loop Demand Mixer,    !- Name
    ChW Loop Demand Outlet Branch,    !- Outlet Branch Name
    ChW Loop Demand LoadProfile Branch,    !- Inlet Branch 1 Name
    ChW Loop Demand Bypass Branch;    !- Inlet Branch 2 Name

Connector:Mixer,
    CndW Loop Supply Mixer,    !- Name
    CndW Loop Supply Outlet Branch,    !- Outlet Branch Name
    CndW Loop Supply CoolingTower Branch;    !- Inlet Branch 1 Name

Connector:Mixer,
    CndW Loop Demand Mixer,    !- Name
    CndW Loop Demand Outlet Branch,    !- Outlet Branch Name
    CndW Loop Demand Branch - CentralHeatPumpSystem,    !- Inlet Branch 1 Name
    CndW Loop Demand Bypass Branch;    !- Inlet Branch 2 Name

ConnectorList,
    HW Loop Supply Connector List,    !- Name
    Connector:Splitter,       !- Connector 1 Object Type
    HW Loop Supply Splitter,    !- Connector 1 Name
    Connector:Mixer,          !- Connector 2 Object Type
    HW Loop Supply Mixer;     !- Connector 2 Name

ConnectorList,
    HW Loop Demand Connector List,    !- Name
    Connector:Splitter,       !- Connector 1 Object Type
    HW Loop Demand Splitter,    !- Connector 1 Name
    Connector:Mixer,          !- Connector 2 Object Type
    HW Loop Demand Mixer;     !- Connector 2 Name

ConnectorList,
    ChW Loop Supply Connector List,    !- Name
    Connector:Splitter,       !- Connector 1 Object Type
    ChW Loop Supply Splitter,    !- Connector 1 Name
    Connector:Mixer,          !- Connector 2 Object Type
    ChW Loop Supply Mixer;    !- Connector 2 Name

ConnectorList,
    ChW Loop Demand Connector List,    !- Name
    Connector:Splitter,       !- Connector 1 Object Type
    ChW Loop Demand Splitter,    !- Connector 1 Name
    Connector:Mixer,          !- Connector 2 Object Type
    ChW Loop Demand Mixer;    !- Connector 2 Name

ConnectorList,
    CndW Loop Supply Connector List,    !- Name
    Connector:Splitter,       !- Connector 1 Object Type
    CndW Loop Supply Splitter,    !- Connector 1 Name
    Connector:Mixer,          !- Connector 2 Object Type
    CndW Loop Supply Mixer;    !- Connector 2 Name

ConnectorList,
    CndW Loop Demand Connector List,    !- Name
    Connector:Splitter,       !- Connector 1 Object Type
    CndW Loop Demand Splitter,    !- Connector 1 Name
    Connector:Mixer,          !- Connector 2 Object Type
    CndW Loop Demand Mixer;    !- Connector 2 Name

Pipe:Adiabatic,
    HW Loop Supply Outlet Pipe,    !- Name
    HW Loop Supply Outlet Pipe Node,    !- Inlet Node Name
    HW Loop Supply Outlet Node;    !- Outlet Node Name

Pipe:Adiabatic,
    HW Loop Demand Inlet Pipe,    !- Name
    HW Loop Demand Inlet Node,    !- Inlet Node Name
    HW Loop Demand Inlet Pipe Node;    !- Outlet Node Name

Pipe:Adiabatic,
    HW Loop Demand Bypass Pipe,    !- Name
    HW Loop Demand Bypass Pipe Inlet Node,    !- Inlet Node Name
    HW Loop Demand Bypass Pipe Outlet Node;    !- Outlet Node Name

Pipe:Adiabatic,
    HW Loop Demand Outlet Pipe,    !- Name
    HW Loop Demand Outlet Pipe Node,    !- Inlet Node Name
    HW Loop Demand Outlet Node;    !- Outlet Node Name

Pipe:Adiabatic,
    ChW Loop Supply Outlet Pipe,    !- Name
    ChW Loop Supply Outlet Pipe Node,    !- Inlet Node Name
    ChW Loop Supply Outlet Node;    !- Outlet Node Name

Pipe:Adiabatic,
    ChW Loop Demand Inlet Pipe,    !- Name
    ChW Loop Demand Inlet Node,    !- Inlet Node Name
    ChW Loop Demand Inlet Pipe Node;    !- Outlet Node Name

Pipe:Adiabatic,
    ChW Loop Demand Bypass Pipe,    !- Name
    ChW Loop Demand Bypass Pipe Inlet Node,    !- Inlet Node Name
    ChW Loop Demand Bypass Pipe Outlet Node;    !- Outlet Node Name

Pipe:Adiabatic,
    ChW Loop Demand Outlet Pipe,    !- Name
    ChW Loop Demand Outlet Pipe Node,    !- Inlet Node Name
    ChW Loop Demand Outlet Node;    !- Outlet Node Name

Pipe:Adiabatic,
    CndW Loop Supply Outlet Pipe,    !- Name
    CndW Loop Supply Outlet Pipe Node,    !- Inlet Node Name
    CndW Loop Supply Outlet Node;    !- Outlet Node Name

Pipe:Adiabatic,
    CndW Loop Demand Inlet Pipe,    !- Name
    CndW Loop Demand Inlet Node,    !- Inlet Node Name
    CndW Loop Demand Inlet Pipe Node;    !- Outlet Node Name

Pipe:Adiabatic,
    CndW Loop Demand Bypass Pipe,    !- Name
    CndW Loop Demand Bypass Pipe Inlet Node,    !- Inlet Node Name
    CndW Loop Demand Bypass Pipe Outlet Node;    !- Outlet Node Name

Pipe:Adiabatic,
    CndW Loop Demand Outlet Pipe,    !- Name
    CndW Loop Demand Outlet Pipe Node,    !- Inlet Node Name
    CndW Loop Demand Outlet Node;    !- Outlet Node Name

Pump:VariableSpeed,
    HW Loop VSD Pump,         !- Name
    HW Loop Supply Inlet Node,    !- Inlet Node Name
    HW Loop Supply Side HW Loop VSD Pump Outlet Node,    !- Outlet Node Name
    Autosize,                 !- Design Maximum Flow Rate
    179352,                   !- Design Pump Head
    Autosize,                 !- Design Power Consumption
    0.9,                      !- Motor Efficiency
    0,                        !- Fraction of Motor Inefficiencies to Fluid Stream
    0,                        !- Coefficient 1 of the Part Load Performance Curve
    1,                        !- Coefficient 2 of the Part Load Performance Curve
    0,                        !- Coefficient 3 of the Part Load Performance Curve
    0,                        !- Coefficient 4 of the Part Load Performance Curve
    0,                        !- Design Minimum Flow Rate
    Intermittent,             !- Pump Control Type
    ,                         !- Pump Flow Rate Schedule Name
    ,                         !- Pump Curve Name
    ,                         !- Impeller Diameter
    ,                         !- VFD Control Type
    ,                         !- Pump rpm Schedule Name
    ,                         !- Minimum Pressure Schedule
    ,                         !- Maximum Pressure Schedule
    ,                         !- Minimum RPM Schedule
    ,                         !- Maximum RPM Schedule
    ,                         !- Zone Name
    0.5,                      !- Skin Loss Radiative Fraction
    PowerPerFlowPerPressure,    !- Design Power Sizing Method
    348701.1,                 !- Design Electric Power per Unit Flow Rate
    1.282051282,              !- Design Shaft Power per Unit Flow Rate per Unit Head
    0,                        !- Design Minimum Flow Rate Fraction
    General;                  !- EndUse Subcategory

Pump:VariableSpeed,
    ChW Loop VSD Pump,        !- Name
    ChW Loop Supply Inlet Node,    !- Inlet Node Name
    ChW Loop Supply Side ChW Loop VSD Pump Outlet Node,    !- Outlet Node Name
    Autosize,                 !- Design Maximum Flow Rate
    179352,                   !- Design Pump Head
    Autosize,                 !- Design Power Consumption
    0.9,                      !- Motor Efficiency
    0,                        !- Fraction of Motor Inefficiencies to Fluid Stream
    0,                        !- Coefficient 1 of the Part Load Performance Curve
    1,                        !- Coefficient 2 of the Part Load Performance Curve
    0,                        !- Coefficient 3 of the Part Load Performance Curve
    0,                        !- Coefficient 4 of the Part Load Performance Curve
    0,                        !- Design Minimum Flow Rate
    Intermittent,             !- Pump Control Type
    ,                         !- Pump Flow Rate Schedule Name
    ,                         !- Pump Curve Name
    ,                         !- Impeller Diameter
    ,                         !- VFD Control Type
    ,                         !- Pump rpm Schedule Name
    ,                         !- Minimum Pressure Schedule
    ,                         !- Maximum Pressure Schedule
    ,                         !- Minimum RPM Schedule
    ,                         !- Maximum RPM Schedule
    ,                         !- Zone Name
    0.5,                      !- Skin Loss Radiative Fraction
    PowerPerFlowPerPressure,    !- Design Power Sizing Method
    348701.1,                 !- Design Electric Power per Unit Flow Rate
    1.282051282,              !- Design Shaft Power per Unit Flow Rate per Unit Head
    0,                        !- Design Minimum Flow Rate Fraction
    General;                  !- EndUse Subcategory

Pump:VariableSpeed,
    CndW Loop VSD Pump,       !- Name
    CndW Loop Supply Inlet Node,    !- Inlet Node Name
    CndW Loop Supply Side CndW Loop VSD Pump Outlet Node,    !- Outlet Node Name
    Autosize,                 !- Design Maximum Flow Rate
    179352,                   !- Design Pump Head
    Autosize,                 !- Design Power Consumption
    0.9,                      !- Motor Efficiency
    0,                        !- Fraction of Motor Inefficiencies to Fluid Stream
    0,                        !- Coefficient 1 of the Part Load Performance Curve
    1,                        !- Coefficient 2 of the Part Load Performance Curve
    0,                        !- Coefficient 3 of the Part Load Performance Curve
    0,                        !- Coefficient 4 of the Part Load Performance Curve
    0,                        !- Design Minimum Flow Rate
    Intermittent,             !- Pump Control Type
    ,                         !- Pump Flow Rate Schedule Name
    ,                         !- Pump Curve Name
    ,                         !- Impeller Diameter
    ,                         !- VFD Control Type
    ,                         !- Pump rpm Schedule Name
    ,                         !- Minimum Pressure Schedule
    ,                         !- Maximum Pressure Schedule
    ,                         !- Minimum RPM Schedule
    ,                         !- Maximum RPM Schedule