
! ~~~~~~~~~~~~~~~~~~~~~~~~~~~~~~~~~~~~~~~~~~~~~~~~~~~~~~~~~~~~~~~~~~~~~~~~~~~~~~
! Basic simulation required objects

Version,
  9.1;                                    !- Version Identifier

Timestep,
  6;                                      !- Number of Timesteps per Hour

Building,
  -LargeOfficeDetailed-ASHRAE 169-2006-2A created: 2019-07-15 15:01:46 -0700, !- Name
  0,                                      !- North Axis {deg}
  City,                                   !- Terrain
  0.04,                                   !- Loads Convergence Tolerance Value
  0.2,                                    !- Temperature Convergence Tolerance Value {deltaC}
  FullInteriorAndExterior,                !- Solar Distribution
  25,                                     !- Maximum Number of Warmup Days
  6;                                      !- Minimum Number of Warmup Days

SimulationControl,
  Yes,                                    !- Do Zone Sizing Calculation
  Yes,                                    !- Do System Sizing Calculation
  Yes,                                    !- Do Plant Sizing Calculation
  No,                                     !- Run Simulation for Sizing Periods
  Yes;                                    !- Run Simulation for Weather File Run Periods

RunPeriodControl:DaylightSavingTime,
  2nd Sunday in March,                    !- Start Date
  1st Sunday in November;                 !- End Date

OutputControl:ReportingTolerances,
  0.2,                                    !- Tolerance for Time Heating Setpoint Not Met {deltaC}
  0.2;                                    !- Tolerance for Time Cooling Setpoint Not Met {deltaC}

RunPeriod,
  Run Period 1,                           !- Name
  1,                                      !- Begin Month
  1,                                      !- Begin Day of Month
  2006,                                   !- Begin Year
  12,                                     !- End Month
  31,                                     !- End Day of Month
  2006,                                   !- End Year
  Sunday,                                 !- Day of Week for Start Day
  No,                                     !- Use Weather File Holidays and Special Days
  No,                                     !- Use Weather File Daylight Saving Period
  No,                                     !- Apply Weekend Holiday Rule
  Yes,                                    !- Use Weather File Rain Indicators
  Yes;                                    !- Use Weather File Snow Indicators

GlobalGeometryRules,
  UpperLeftCorner,                        !- Starting Vertex Position
  Counterclockwise,                       !- Vertex Entry Direction
  Relative,                               !- Coordinate System
  Relative,                               !- Daylighting Reference Point Coordinate System
  Relative;                               !- Rectangular Surface Coordinate System

SizingPeriod:DesignDay,
  Houston Bush Intercontinental Ann Clg .4% Condns DB=>MWB, !- Name
  7,                                      !- Month
  21,                                     !- Day of Month
  SummerDesignDay,                        !- Day Type
  36,                                     !- Maximum Dry-Bulb Temperature {C}
  10.1,                                   !- Daily Dry-Bulb Temperature Range {deltaC}
  DefaultMultipliers,                     !- Dry-Bulb Temperature Range Modifier Type
  ,                                       !- Dry-Bulb Temperature Range Modifier Day Schedule Name
  Wetbulb,                                !- Humidity Condition Type
  24.8,                                   !- Wetbulb or DewPoint at Maximum Dry-Bulb {C}
  ,                                       !- Humidity Condition Day Schedule Name
  ,                                       !- Humidity Ratio at Maximum Dry-Bulb {kgWater/kgDryAir}
  ,                                       !- Enthalpy at Maximum Dry-Bulb {J/kg}
  ,                                       !- Daily Wet-Bulb Temperature Range {deltaC}
  100977,                                 !- Barometric Pressure {Pa}
  3.5,                                    !- Wind Speed {m/s}
  170,                                    !- Wind Direction {deg}
  No,                                     !- Rain Indicator
  No,                                     !- Snow Indicator
  No,                                     !- Daylight Saving Time Indicator
  ASHRAETau,                              !- Solar Model Indicator
  ,                                       !- Beam Solar Day Schedule Name
  ,                                       !- Diffuse Solar Day Schedule Name
  0.499,                                  !- ASHRAE Clear Sky Optical Depth for Beam Irradiance (taub) {dimensionless}
  1.97;                                   !- ASHRAE Clear Sky Optical Depth for Diffuse Irradiance (taud) {dimensionless}

SizingPeriod:DesignDay,
  Houston Bush Intercontinental Ann Htg 99.6% Condns DB, !- Name
  1,                                      !- Month
  21,                                     !- Day of Month
  WinterDesignDay,                        !- Day Type
  -1.6,                                   !- Maximum Dry-Bulb Temperature {C}
  0,                                      !- Daily Dry-Bulb Temperature Range {deltaC}
  DefaultMultipliers,                     !- Dry-Bulb Temperature Range Modifier Type
  ,                                       !- Dry-Bulb Temperature Range Modifier Day Schedule Name
  Wetbulb,                                !- Humidity Condition Type
  -1.6,                                   !- Wetbulb or DewPoint at Maximum Dry-Bulb {C}
  ,                                       !- Humidity Condition Day Schedule Name
  ,                                       !- Humidity Ratio at Maximum Dry-Bulb {kgWater/kgDryAir}
  ,                                       !- Enthalpy at Maximum Dry-Bulb {J/kg}
  ,                                       !- Daily Wet-Bulb Temperature Range {deltaC}
  100977,                                 !- Barometric Pressure {Pa}
  2.8,                                    !- Wind Speed {m/s}
  0,                                      !- Wind Direction {deg}
  No,                                     !- Rain Indicator
  No,                                     !- Snow Indicator
  No,                                     !- Daylight Saving Time Indicator
  ASHRAEClearSky,                         !- Solar Model Indicator
  ,                                       !- Beam Solar Day Schedule Name
  ,                                       !- Diffuse Solar Day Schedule Name
  ,                                       !- ASHRAE Clear Sky Optical Depth for Beam Irradiance (taub) {dimensionless}
  ,                                       !- ASHRAE Clear Sky Optical Depth for Diffuse Irradiance (taud) {dimensionless}
  0;                                      !- Sky Clearness

! ~~~~~~~~~~~~~~~~~~~~~~~~~~~~~~~~~~~~~~~~~~~~~~~~~~~~~~~~~~~~~~~~~~~~~~~~~~~~~~

! ##############################################################################
! Water Heating (Boiler) Plant Loop
! ##############################################################################

PlantLoop,
  Hot Water Loop,                         !- Name
  Water,                                  !- Fluid Type
  ,                                       !- User Defined Fluid Type
  Hot Water Loop Operation Schemes,       !- Plant Equipment Operation Scheme Name
  Hot Water Loop Supply Outlet Pipe Outlet Node, !- Loop Temperature Setpoint Node Name
  100,                                    !- Maximum Loop Temperature {C}
  10,                                     !- Minimum Loop Temperature {C}
  Autosize,                               !- Maximum Loop Flow Rate {m3/s}
  0,                                      !- Minimum Loop Flow Rate {m3/s}
  Autocalculate,                          !- Plant Loop Volume {m3}
  Hot Water Loop Pump Inlet Node,         !- Plant Side Inlet Node Name
  Hot Water Loop Supply Outlet Pipe Outlet Node, !- Plant Side Outlet Node Name
  Hot Water Loop Supply Branches,         !- Plant Side Branch List Name
  Hot Water Loop Supply Connector List,   !- Plant Side Connector List Name
  Hot Water Loop Demand Inlet Pipe Inlet Node, !- Demand Side Inlet Node Name
  Hot Water Loop Demand Outlet Pipe Outlet Node, !- Demand Side Outlet Node Name
  Hot Water Loop Demand Branches,         !- Demand Side Branch List Name
  Hot Water Loop Demand Connector List,   !- Demand Side Connector List Name
  Optimal,                                !- Load Distribution Scheme
  ,                                       !- Availability Manager List Name
  SingleSetpoint,                         !- Plant Loop Demand Calculation Scheme
  ;                                       !- Common Pipe Simulation

Sizing:Plant,
  Hot Water Loop,                         !- Plant or Condenser Loop Name
  Heating,                                !- Loop Type
  82.2222222222223,                       !- Design Loop Exit Temperature {C}
  11.1111111111111,                       !- Loop Design Temperature Difference {deltaC}
  NonCoincident,                          !- Sizing Option
  1,                                      !- Zone Timesteps in Averaging Window
  None;                                   !- Coincident Sizing Factor Mode

BranchList,
  Hot Water Loop Supply Branches,         !- Name
  Hot Water Loop Supply Inlet Branch,     !- Branch Name 1
  Hot Water Loop Supply Branch 1,         !- Branch Name 2
  Hot Water Loop Supply Branch 2,         !- Branch Name 3
  Hot Water Loop Supply Outlet Branch;    !- Branch Name 4

ConnectorList,
  Hot Water Loop Supply Connector List,   !- Name
  Connector:Splitter,                     !- Connector Object Type 1
  Hot Water Loop Supply Splitter,         !- Connector Name 1
  Connector:Mixer,                        !- Connector Object Type 2
  Hot Water Loop Supply Mixer;            !- Connector Name 2

Connector:Splitter,
  Hot Water Loop Supply Splitter,         !- Name
  Hot Water Loop Supply Inlet Branch,     !- Inlet Branch Name
  Hot Water Loop Supply Branch 1,         !- Outlet Branch Name 1
  Hot Water Loop Supply Branch 2;         !- Outlet Branch Name 2

Connector:Mixer,
  Hot Water Loop Supply Mixer,            !- Name
  Hot Water Loop Supply Outlet Branch,    !- Outlet Branch Name
  Hot Water Loop Supply Branch 1,         !- Inlet Branch Name 1
  Hot Water Loop Supply Branch 2;         !- Inlet Branch Name 2

Branch,
  Hot Water Loop Supply Inlet Branch,     !- Name
  ,                                       !- Pressure Drop Curve Name
  Pump:VariableSpeed,                     !- Component Object Type 1
  Hot Water Loop Pump,                    !- Component Name 1
  Hot Water Loop Pump Inlet Node,         !- Component Inlet Node Name 1
  Hot Water Loop Pump Outlet Node;        !- Component Outlet Node Name 1

Pump:VariableSpeed,
  Hot Water Loop Pump,                    !- Name
  Hot Water Loop Pump Inlet Node,         !- Inlet Node Name
  Hot Water Loop Pump Outlet Node,        !- Outlet Node Name
  Autosize,                               !- Design Maximum Flow Rate {m3/s}
  179344.0152,                            !- Design Pump Head {Pa}
  Autosize,                               !- Design Power Consumption {W}
  0.9,                                    !- Motor Efficiency
  0,                                      !- Fraction of Motor Inefficiencies to Fluid Stream
  0,                                      !- Coefficient 1 of the Part Load Performance Curve
  1,                                      !- Coefficient 2 of the Part Load Performance Curve
  0,                                      !- Coefficient 3 of the Part Load Performance Curve
  0,                                      !- Coefficient 4 of the Part Load Performance Curve
  0,                                      !- Design Minimum Flow Rate {m3/s}
  Intermittent,                           !- Pump Control Type
  ,                                       !- Pump Flow Rate Schedule Name
  ,                                       !- Pump Curve Name
  ,                                       !- Impeller Diameter {m}
  ,                                       !- VFD Control Type
  ,                                       !- Pump rpm Schedule Name
  ,                                       !- Minimum Pressure Schedule {Pa}
  ,                                       !- Maximum Pressure Schedule {Pa}
  ,                                       !- Minimum RPM Schedule {Rotations Per Minute}
  ,                                       !- Maximum RPM Schedule {Rotations Per Minute}
  ,                                       !- Zone Name
  0.5,                                    !- Skin Loss Radiative Fraction
  PowerPerFlowPerPressure,                !- Design Power Sizing Method
  348701.1,                               !- Design Electric Power per Unit Flow Rate {W/(m3/s)}
  1.282051282,                            !- Design Shaft Power per Unit Flow Rate per Unit Head
  0,                                      !- Design Minimum Flow Rate Fraction
  General;                                !- End-Use Subcategory

Branch,
  Hot Water Loop Supply Branch 1,         !- Name
  ,                                       !- Pressure Drop Curve Name
  Boiler:HotWater,                        !- Component Object Type 1
  Boiler,                                 !- Component Name 1
  Boiler Inlet Node,                      !- Component Inlet Node Name 1
  Boiler Outlet Node;                     !- Component Outlet Node Name 1

Boiler:HotWater,
  Boiler,                                 !- Name
  NaturalGas,                             !- Fuel Type
  Autosize,                               !- Nominal Capacity {W}
  0.78,                                   !- Nominal Thermal Efficiency
  LeavingBoiler,                          !- Efficiency Curve Temperature Evaluation Variable
  ,                                       !- Normalized Boiler Efficiency Curve Name
  Autosize,                               !- Design Water Flow Rate {m3/s}
  0,                                      !- Minimum Part Load Ratio
  1.2,                                    !- Maximum Part Load Ratio
  1,                                      !- Optimum Part Load Ratio
  Boiler Inlet Node,                      !- Boiler Water Inlet Node Name
  Boiler Outlet Node,                     !- Boiler Water Outlet Node Name
  95.0000000000001,                       !- Water Outlet Upper Temperature Limit {C}
  LeavingSetpointModulated,               !- Boiler Flow Mode
  0,                                      !- Parasitic Electric Load {W}
  1,                                      !- Sizing Factor
  General;                                !- End-Use Subcategory

Branch,
  Hot Water Loop Supply Branch 2,         !- Name
  ,                                       !- Pressure Drop Curve Name
  Pipe:Adiabatic,                         !- Component Object Type 1
  Hot Water Loop Supply Equipment Bypass Pipe, !- Component Name 1
  Hot Water Loop Supply Equipment Bypass Pipe Inlet Node, !- Component Inlet Node Name 1
  Hot Water Loop Supply Equipment Bypass Pipe Outlet Node; !- Component Outlet Node Name 1

Pipe:Adiabatic,
  Hot Water Loop Supply Equipment Bypass Pipe, !- Name
  Hot Water Loop Supply Equipment Bypass Pipe Inlet Node, !- Inlet Node Name
  Hot Water Loop Supply Equipment Bypass Pipe Outlet Node; !- Outlet Node Name

Branch,
  Hot Water Loop Supply Outlet Branch,    !- Name
  ,                                       !- Pressure Drop Curve Name
  Pipe:Adiabatic,                         !- Component Object Type 1
  Hot Water Loop Supply Outlet Pipe,      !- Component Name 1
  Hot Water Loop Supply Outlet Pipe Inlet Node, !- Component Inlet Node Name 1
  Hot Water Loop Supply Outlet Pipe Outlet Node; !- Component Outlet Node Name 1

Pipe:Adiabatic,
  Hot Water Loop Supply Outlet Pipe,      !- Name
  Hot Water Loop Supply Outlet Pipe Inlet Node, !- Inlet Node Name
  Hot Water Loop Supply Outlet Pipe Outlet Node; !- Outlet Node Name

!______________________________________________________
! Hot water supply outlet setpoint manager
SetpointManager:Scheduled,
  Hot Water Loop Setpoint Manager - Hot Water Supply Outlet, !- Name
  Temperature,                            !- Control Variable
  Hot Water Loop Temp - 180F,             !- Schedule Name
  Hot Water Loop Supply Outlet Pipe Outlet Node; !- Setpoint Node or NodeList Name

Schedule:Year,
  Hot Water Loop Temp - 180F,             !- Name
  Temperature,                            !- Schedule Type Limits Name
  Hot Water Loop Temp - 180F Week Rule - Jan1-Dec31, !- Schedule:Week Name 1
  1,                                      !- Start Month 1
  1,                                      !- Start Day 1
  12,                                     !- End Month 1
  31;                                     !- End Day 1

Schedule:Day:Interval,
  Hot Water Loop Temp - 180F Default,     !- Name
  Temperature,                            !- Schedule Type Limits Name
  No,                                     !- Interpolate to Timestep
  24:00,                                  !- Time 1 {hh:mm}
  82.2222222222223;                       !- Value Until Time 1

Schedule:Week:Daily,
  Hot Water Loop Temp - 180F Week Rule - Jan1-Dec31, !- Name
  Hot Water Loop Temp - 180F Default,     !- Sunday Schedule:Day Name
  Hot Water Loop Temp - 180F Default,     !- Monday Schedule:Day Name
  Hot Water Loop Temp - 180F Default,     !- Tuesday Schedule:Day Name
  Hot Water Loop Temp - 180F Default,     !- Wednesday Schedule:Day Name
  Hot Water Loop Temp - 180F Default,     !- Thursday Schedule:Day Name
  Hot Water Loop Temp - 180F Default,     !- Friday Schedule:Day Name
  Hot Water Loop Temp - 180F Default,     !- Saturday Schedule:Day Name
  Hot Water Loop Temp - 180F Default,     !- Holiday Schedule:Day Name
  Hot Water Loop Temp - 180F Default,     !- SummerDesignDay Schedule:Day Name
  Hot Water Loop Temp - 180F Default,     !- WinterDesignDay Schedule:Day Name
  Hot Water Loop Temp - 180F Default,     !- CustomDay1 Schedule:Day Name
  Hot Water Loop Temp - 180F Default;     !- CustomDay2 Schedule:Day Name
!______________________________________________________

BranchList,
  Hot Water Loop Demand Branches,         !- Name
  Hot Water Loop Demand Inlet Branch,     !- Branch Name 1
  Hot Water Loop Demand Branch 1,         !- Branch Name 2
  Hot Water Loop Demand Branch 2,         !- Branch Name 3
  Hot Water Loop Demand Bypass Branch,    !- Branch Name 4
  Hot Water Loop Demand Outlet Branch;    !- Branch Name 5

ConnectorList,
  Hot Water Loop Demand Connector List,   !- Name
  Connector:Splitter,                     !- Connector Object Type 1
  Hot Water Loop Demand Splitter,         !- Connector Name 1
  Connector:Mixer,                        !- Connector Object Type 2
  Hot Water Loop Demand Mixer;            !- Connector Name 2

Connector:Splitter,
  Hot Water Loop Demand Splitter,         !- Name
  Hot Water Loop Demand Inlet Branch,     !- Inlet Branch Name
  Hot Water Loop Demand Branch 1,         !- Outlet Branch Name 1
  Hot Water Loop Demand Branch 2,         !- Outlet Branch Name 2
  Hot Water Loop Demand Bypass Branch;    !- Outlet Branch Name 3

Connector:Mixer,
  Hot Water Loop Demand Mixer,            !- Name
  Hot Water Loop Demand Outlet Branch,    !- Outlet Branch Name
  Hot Water Loop Demand Branch 1,         !- Inlet Branch Name 1
  Hot Water Loop Demand Branch 2,         !- Inlet Branch Name 2
  Hot Water Loop Demand Bypass Branch;    !- Inlet Branch Name 3

Branch,
  Hot Water Loop Demand Inlet Branch,     !- Name
  ,                                       !- Pressure Drop Curve Name
  Pipe:Adiabatic,                         !- Component Object Type 1
  Hot Water Loop Demand Inlet Pipe,       !- Component Name 1
  Hot Water Loop Demand Inlet Pipe Inlet Node, !- Component Inlet Node Name 1
  Hot Water Loop Demand Inlet Pipe Outlet Node; !- Component Outlet Node Name 1

Pipe:Adiabatic,
  Hot Water Loop Demand Inlet Pipe,       !- Name
  Hot Water Loop Demand Inlet Pipe Inlet Node, !- Inlet Node Name
  Hot Water Loop Demand Inlet Pipe Outlet Node; !- Outlet Node Name

Branch,
  Hot Water Loop Demand Branch 1,         !- Name
  ,                                       !- Pressure Drop Curve Name
  Pipe:Adiabatic,                         !- Component Object Type 1
  Hot Water Loop Coil Bypass Pipe,        !- Component Name 1
  Hot Water Loop Coil Bypass Pipe Inlet Node, !- Component Inlet Node Name 1
  Hot Water Loop Coil Bypass Pipe Outlet Node; !- Component Outlet Node Name 1

Pipe:Adiabatic,
  Hot Water Loop Coil Bypass Pipe,        !- Name
  Hot Water Loop Coil Bypass Pipe Inlet Node, !- Inlet Node Name
  Hot Water Loop Coil Bypass Pipe Outlet Node; !- Outlet Node Name


!---------------------------------------------------------------------
! Heating load profile branch details
!---------------------------------------------------------------------
Branch,
  Hot Water Loop Demand Branch 2,         !- Name
  ,                                       !- Pressure Drop Curve Name
  LoadProfile:Plant,                      !- Component Object Type 1
  District Heating Load Profile,          !- Component Name 1
  District Heating Load Profile Inlet Node, !- Component Inlet Node Name 1
  District Heating Load Profile Outlet Node; !- Component Outlet Node Name 1

LoadProfile:Plant,
  District Heating Load Profile,          !- Name
  District Heating Load Profile Inlet Node, !- Inlet Node Name
  District Heating Load Profile Outlet Node, !- Outlet Node Name
  District Heating Load Profile Schedule, !- Load Schedule Name
  0.002,                                  !- Peak Flow Rate {m3/s}
  Always On Discrete hvac_library;        !- Flow Rate Fraction Schedule Name

Schedule:Constant,
  Always On Discrete hvac_library,        !- Name
  OnOff hvac_library,                     !- Schedule Type Limits Name
  1;                                      !- Hourly Value

Schedule:Year,
  District Heating Load Profile Schedule, !- Name
  Dimensionless,                          !- Schedule Type Limits Name
  District Heating Load Profile Schedule Week Rule - Jan1-Dec31, !- Schedule:Week Name 1
  1,                                      !- Start Month 1
  1,                                      !- Start Day 1
  12,                                     !- End Month 1
  31;                                     !- End Day 1

Schedule:Week:Daily,
  District Heating Load Profile Schedule Week Rule - Jan1-Dec31, !- Name
  Schedule Day 49,                        !- Sunday Schedule:Day Name
  Schedule Day 49,                        !- Monday Schedule:Day Name
  Schedule Day 49,                        !- Tuesday Schedule:Day Name
  Schedule Day 49,                        !- Wednesday Schedule:Day Name
  Schedule Day 49,                        !- Thursday Schedule:Day Name
  Schedule Day 49,                        !- Friday Schedule:Day Name
  Schedule Day 49,                        !- Saturday Schedule:Day Name
  Schedule Day 49,                        !- Holiday Schedule:Day Name
  Schedule Day 49,                        !- SummerDesignDay Schedule:Day Name
  Schedule Day 49,                        !- WinterDesignDay Schedule:Day Name
  Schedule Day 49,                        !- CustomDay1 Schedule:Day Name
  Schedule Day 49;                        !- CustomDay2 Schedule:Day Name

Schedule:Day:Interval,
  Schedule Day 49,                        !- Name
  Dimensionless,                          !- Schedule Type Limits Name
  No,                                     !- Interpolate to Timestep
  24:00,                                  !- Time 1 {hh:mm}
  50000;                                  !- Value Until Time 1
!---------------------------------------------------------------------

Branch,
  Hot Water Loop Demand Bypass Branch,    !- Name
  ,                                       !- Pressure Drop Curve Name
  Pipe:Adiabatic,                         !- Component Object Type 1
  Hot Water Loop Demand Bypass Pipe,      !- Component Name 1
  Hot Water Loop Demand Bypass Pipe Inlet Node, !- Component Inlet Node Name 1
  Hot Water Loop Demand Bypass Pipe Outlet Node; !- Component Outlet Node Name 1

Pipe:Adiabatic,
  Hot Water Loop Demand Bypass Pipe,      !- Name
  Hot Water Loop Demand Bypass Pipe Inlet Node, !- Inlet Node Name
  Hot Water Loop Demand Bypass Pipe Outlet Node; !- Outlet Node Name

Branch,
  Hot Water Loop Demand Outlet Branch,    !- Name
  ,                                       !- Pressure Drop Curve Name
  Pipe:Adiabatic,                         !- Component Object Type 1
  Hot Water Loop Demand Outlet Pipe,      !- Component Name 1
  Hot Water Loop Demand Outlet Pipe Inlet Node, !- Component Inlet Node Name 1
  Hot Water Loop Demand Outlet Pipe Outlet Node; !- Component Outlet Node Name 1

Pipe:Adiabatic,
  Hot Water Loop Demand Outlet Pipe,      !- Name
  Hot Water Loop Demand Outlet Pipe Inlet Node, !- Inlet Node Name
  Hot Water Loop Demand Outlet Pipe Outlet Node; !- Outlet Node Name

PlantEquipmentOperationSchemes,
  Hot Water Loop Operation Schemes,       !- Name
  PlantEquipmentOperation:HeatingLoad,    !- Control Scheme Object Type 1
  Hot Water Loop Heating Operation Scheme, !- Control Scheme Name 1
  Always On Discrete;                     !- Control Scheme Schedule Name 1

PlantEquipmentOperation:HeatingLoad,
  Hot Water Loop Heating Operation Scheme, !- Name
  0,                                      !- Load Range Lower Limit 1 {W}
  1000000000,                             !- Load Range Upper Limit 1 {W}
  Hot Water Loop Heating Equipment List;  !- Range Equipment List Name 1

PlantEquipmentList,
  Hot Water Loop Heating Equipment List,  !- Name
  Boiler:HotWater,                        !- Equipment Object Type 1
  Boiler;                                 !- Equipment Name 1

! ##############################################################################
! Chiller Plant Loop
! ##############################################################################
PlantLoop,
  Chilled Water Loop,                     !- Name
  Water,                                  !- Fluid Type
  ,                                       !- User Defined Fluid Type
  Chilled Water Loop Operation Schemes,   !- Plant Equipment Operation Scheme Name
  Chilled Water Loop Supply Outlet Pipe Outlet Node, !- Loop Temperature Setpoint Node Name
  40,                                     !- Maximum Loop Temperature {C}
  -6.67,                                  !- Minimum Loop Temperature {C}
  Autosize,                               !- Maximum Loop Flow Rate {m3/s}
  0,                                      !- Minimum Loop Flow Rate {m3/s}
  Autocalculate,                          !- Plant Loop Volume {m3}
  Chilled Water Loop Primary Pump Inlet Node, !- Plant Side Inlet Node Name
  Chilled Water Loop Supply Outlet Pipe Outlet Node, !- Plant Side Outlet Node Name
  Chilled Water Loop Supply Branches,     !- Plant Side Branch List Name
  Chilled Water Loop Supply Connector List, !- Plant Side Connector List Name
  Chilled Water Loop Demand Inlet Pipe Inlet Node, !- Demand Side Inlet Node Name
  Chilled Water Loop Demand Outlet Pipe Outlet Node, !- Demand Side Outlet Node Name
  Chilled Water Loop Demand Branches,     !- Demand Side Branch List Name
  Chilled Water Loop Demand Connector List, !- Demand Side Connector List Name
  Optimal,                                !- Load Distribution Scheme
  ,                                       !- Availability Manager List Name
  SingleSetpoint,                         !- Plant Loop Demand Calculation Scheme
  CommonPipe;                             !- Common Pipe Simulation

Sizing:Plant,
  Chilled Water Loop,                     !- Plant or Condenser Loop Name
  Cooling,                                !- Loop Type
  6.7,                                    !- Design Loop Exit Temperature {C}
  6.7,                                    !- Loop Design Temperature Difference {deltaC}
  NonCoincident,                          !- Sizing Option
  1,                                      !- Zone Timesteps in Averaging Window
  None;                                   !- Coincident Sizing Factor Mode

BranchList,
  Chilled Water Loop Supply Branches,     !- Name
  Chilled Water Loop Supply Inlet Branch, !- Branch Name 1
  Chilled Water Loop Supply Branch 1,     !- Branch Name 2
  Chilled Water Loop Supply Branch 2,     !- Branch Name 3
  Chilled Water Loop Supply Branch 3,     !- Branch Name 4
  Chilled Water Loop Supply Outlet Branch; !- Branch Name 5

ConnectorList,
  Chilled Water Loop Supply Connector List, !- Name
  Connector:Splitter,                     !- Connector Object Type 1
  Chilled Water Loop Supply Splitter,     !- Connector Name 1
  Connector:Mixer,                        !- Connector Object Type 2
  Chilled Water Loop Supply Mixer;        !- Connector Name 2

Connector:Splitter,
  Chilled Water Loop Supply Splitter,     !- Name
  Chilled Water Loop Supply Inlet Branch, !- Inlet Branch Name
  Chilled Water Loop Supply Branch 1,     !- Outlet Branch Name 1
  Chilled Water Loop Supply Branch 2,     !- Outlet Branch Name 2
  Chilled Water Loop Supply Branch 3;     !- Outlet Branch Name 3

Connector:Mixer,
  Chilled Water Loop Supply Mixer,        !- Name
  Chilled Water Loop Supply Outlet Branch, !- Outlet Branch Name
  Chilled Water Loop Supply Branch 1,     !- Inlet Branch Name 1
  Chilled Water Loop Supply Branch 2,     !- Inlet Branch Name 2
  Chilled Water Loop Supply Branch 3;     !- Inlet Branch Name 3

Branch,
  Chilled Water Loop Supply Inlet Branch, !- Name
  ,                                       !- Pressure Drop Curve Name
  Pump:ConstantSpeed,                     !- Component Object Type 1
  Chilled Water Loop Primary Pump,        !- Component Name 1