! ######################################################################################
! High level information
! ######################################################################################
Version,
  9.1;                                    !- Version Identifier

Timestep,
  6;                                      !- Number of Timesteps per Hour

Building,
  -LargeOffice-ASHRAE 169-2006-2A created: 2019-06-18 16:12:49 -0700, !- Name
  0,                                      !- North Axis {deg}
  City,                                   !- Terrain
  0.04,                                   !- Loads Convergence Tolerance Value
  0.2,                                    !- Temperature Convergence Tolerance Value {deltaC}
  FullInteriorAndExterior,                !- Solar Distribution
  25,                                     !- Maximum Number of Warmup Days
  6;                                      !- Minimum Number of Warmup Days

SimulationControl,
  No,                                     !- Do Zone Sizing Calculation
  No,                                     !- Do System Sizing Calculation
  Yes,                                    !- Do Plant Sizing Calculation
  No,                                     !- Run Simulation for Sizing Periods
  Yes;                                    !- Run Simulation for Weather File Run Periods

RunPeriodControl:DaylightSavingTime,
  2nd Sunday in March,                    !- Start Date
  1st Sunday in November;                 !- End Date

OutputControl:ReportingTolerances,
  0.2,                                    !- Tolerance for Time Heating Setpoint Not Met {deltaC}
  0.2;                                    !- Tolerance for Time Cooling Setpoint Not Met {deltaC}

Site:Location,
  Houston Bush Intercontinental_TX_USA,   !- Name
  30,                                     !- Latitude {deg}
  -95.37,                                 !- Longitude {deg}
  -6,                                     !- Time Zone {hr}
  29;                                     !- Elevation {m}

Site:GroundTemperature:BuildingSurface,
  19.527,                                 !- January Ground Temperature {C}
  19.502,                                 !- February Ground Temperature {C}
  19.536,                                 !- March Ground Temperature {C}
  19.598,                                 !- April Ground Temperature {C}
  20.002,                                 !- May Ground Temperature {C}
  21.64,                                  !- June Ground Temperature {C}
  22.225,                                 !- July Ground Temperature {C}
  22.375,                                 !- August Ground Temperature {C}
  21.449,                                 !- September Ground Temperature {C}
  20.121,                                 !- October Ground Temperature {C}
  19.802,                                 !- November Ground Temperature {C}
  19.633;                                 !- December Ground Temperature {C}

Site:WaterMainsTemperature,
  Correlation,                            !- Calculation Method
  ,                                       !- Temperature Schedule Name
  20.3166666666667,                       !- Annual Average Outdoor Air Temperature {C}
  17.8;                                   !- Maximum Difference In Monthly Average Outdoor Air Temperatures {deltaC}

SizingPeriod:DesignDay,
  Houston Bush Intercontinental Ann Clg .4% Condns DB=>MWB, !- Name
  7,                                      !- Month
  21,                                     !- Day of Month
  SummerDesignDay,                        !- Day Type
  36,                                     !- Maximum Dry-Bulb Temperature {C}
  10.1,                                   !- Daily Dry-Bulb Temperature Range {deltaC}
  DefaultMultipliers,                     !- Dry-Bulb Temperature Range Modifier Type
  ,                                       !- Dry-Bulb Temperature Range Modifier Day Schedule Name
  Wetbulb,                                !- Humidity Condition Type
  24.8,                                   !- Wetbulb or DewPoint at Maximum Dry-Bulb {C}
  ,                                       !- Humidity Condition Day Schedule Name
  ,                                       !- Humidity Ratio at Maximum Dry-Bulb {kgWater/kgDryAir}
  ,                                       !- Enthalpy at Maximum Dry-Bulb {J/kg}
  ,                                       !- Daily Wet-Bulb Temperature Range {deltaC}
  100977,                                 !- Barometric Pressure {Pa}
  3.5,                                    !- Wind Speed {m/s}
  170,                                    !- Wind Direction {deg}
  No,                                     !- Rain Indicator
  No,                                     !- Snow Indicator
  No,                                     !- Daylight Saving Time Indicator
  ASHRAETau,                              !- Solar Model Indicator
  ,                                       !- Beam Solar Day Schedule Name
  ,                                       !- Diffuse Solar Day Schedule Name
  0.499,                                  !- ASHRAE Clear Sky Optical Depth for Beam Irradiance (taub) {dimensionless}
  1.97;                                   !- ASHRAE Clear Sky Optical Depth for Diffuse Irradiance (taud) {dimensionless}

SizingPeriod:DesignDay,
  Houston Bush Intercontinental Ann Htg 99.6% Condns DB, !- Name
  1,                                      !- Month
  21,                                     !- Day of Month
  WinterDesignDay,                        !- Day Type
  -1.6,                                   !- Maximum Dry-Bulb Temperature {C}
  0,                                      !- Daily Dry-Bulb Temperature Range {deltaC}
  DefaultMultipliers,                     !- Dry-Bulb Temperature Range Modifier Type
  ,                                       !- Dry-Bulb Temperature Range Modifier Day Schedule Name
  Wetbulb,                                !- Humidity Condition Type
  -1.6,                                   !- Wetbulb or DewPoint at Maximum Dry-Bulb {C}
  ,                                       !- Humidity Condition Day Schedule Name
  ,                                       !- Humidity Ratio at Maximum Dry-Bulb {kgWater/kgDryAir}
  ,                                       !- Enthalpy at Maximum Dry-Bulb {J/kg}
  ,                                       !- Daily Wet-Bulb Temperature Range {deltaC}
  100977,                                 !- Barometric Pressure {Pa}
  2.8,                                    !- Wind Speed {m/s}
  0,                                      !- Wind Direction {deg}
  No,                                     !- Rain Indicator
  No,                                     !- Snow Indicator
  No,                                     !- Daylight Saving Time Indicator
  ASHRAEClearSky,                         !- Solar Model Indicator
  ,                                       !- Beam Solar Day Schedule Name
  ,                                       !- Diffuse Solar Day Schedule Name
  ,                                       !- ASHRAE Clear Sky Optical Depth for Beam Irradiance (taub) {dimensionless}
  ,                                       !- ASHRAE Clear Sky Optical Depth for Diffuse Irradiance (taud) {dimensionless}
  0;                                      !- Sky Clearness


ConvergenceLimits,
  1;                                      !- Minimum System Timestep {minutes}

HeatBalanceAlgorithm,
  ConductionTransferFunction,             !- Algorithm
  200;                                    !- Surface Temperature Upper Limit {C}

RunPeriod,
  Run Period 1,                           !- Name
  1,                                      !- Begin Month
  1,                                      !- Begin Day of Month
  2006,                                   !- Begin Year
  12,                                     !- End Month
  31,                                     !- End Day of Month
  2006,                                   !- End Year
  Sunday,                                 !- Day of Week for Start Day
  No,                                     !- Use Weather File Holidays and Special Days
  No,                                     !- Use Weather File Daylight Saving Period
  No,                                     !- Apply Weekend Holiday Rule
  Yes,                                    !- Use Weather File Rain Indicators
  Yes;                                    !- Use Weather File Snow Indicators

ShadowCalculation,
  AverageOverDaysInFrequency,             !- Calculation Method
  20,                                     !- Calculation Frequency
  15000;                                  !- Maximum Figures in Shadow Overlap Calculations

SurfaceConvectionAlgorithm:Inside,
  TARP;                                   !- Algorithm

SurfaceConvectionAlgorithm:Outside,
  TARP;                                   !- Algorithm

Sizing:Parameters,
  1,                                      !- Heating Sizing Factor
  1;                                      !- Cooling Sizing Factor

ZoneAirContaminantBalance,
  No;                                     !- Carbon Dioxide Concentration

ZoneAirHeatBalanceAlgorithm,
  ThirdOrderBackwardDifference;           !- Algorithm

ZoneCapacitanceMultiplier:ResearchSpecial,
  Zone Capacitance Multiplier Research Special, !- Name
  ,                                       !- Zone or ZoneList Name
  ,                                       !- Temperature Capacity Multiplier
  ,                                       !- Humidity Capacity Multiplier
  ,                                       !- Carbon Dioxide Capacity Multiplier
  ;                                       !- Generic Contaminant Capacity Multiplier

GlobalGeometryRules,
  UpperLeftCorner,                        !- Starting Vertex Position
  Counterclockwise,                       !- Vertex Entry Direction
  Relative,                               !- Coordinate System
  Relative,                               !- Daylighting Reference Point Coordinate System
  Relative;                               !- Rectangular Surface Coordinate System


! ######################################################################################
! Schedules
! ######################################################################################

ScheduleTypeLimits,
  ActivityLevel,                          !- Name
  0,                                      !- Lower Limit Value {BasedOnField A3}
  ,                                       !- Upper Limit Value {BasedOnField A3}
  Continuous,                             !- Numeric Type
  activitylevel;                          !- Unit Type

ScheduleTypeLimits,
  Capacity,                               !- Name
  0,                                      !- Lower Limit Value {BasedOnField A3}
  ,                                       !- Upper Limit Value {BasedOnField A3}
  Continuous,                             !- Numeric Type
  capacity;                               !- Unit Type

ScheduleTypeLimits,
  Any Number;                             !- Name

ScheduleTypeLimits,
  DeltaTemperature,                       !- Name
  ,                                       !- Lower Limit Value {BasedOnField A3}
  ,                                       !- Upper Limit Value {BasedOnField A3}
  Continuous,                             !- Numeric Type
  deltatemperature;                       !- Unit Type

ScheduleTypeLimits,
  Dimensionless,                          !- Name
  ,                                       !- Lower Limit Value {BasedOnField A3}
  ,                                       !- Upper Limit Value {BasedOnField A3}
  Continuous;                             !- Numeric Type

ScheduleTypeLimits,
  Dimensionless 1,                        !- Name
  -1,                                     !- Lower Limit Value {BasedOnField A3}
  1,                                      !- Upper Limit Value {BasedOnField A3}
  Continuous;                             !- Numeric Type

ScheduleTypeLimits,
  Dimensionless 2,                        !- Name
  0.1,                                    !- Lower Limit Value {BasedOnField A3}
  1000,                                   !- Upper Limit Value {BasedOnField A3}
  Continuous;                             !- Numeric Type

ScheduleTypeLimits,
  Dimensionless 3,                        !- Name
  0,                                      !- Lower Limit Value {BasedOnField A3}
  1,                                      !- Upper Limit Value {BasedOnField A3}
  Continuous,                             !- Numeric Type
  dimensionless;                          !- Unit Type

ScheduleTypeLimits,
  Fractional,                             !- Name
  0,                                      !- Lower Limit Value {BasedOnField A3}
  1,                                      !- Upper Limit Value {BasedOnField A3}
  Continuous;                             !- Numeric Type

ScheduleTypeLimits,
  OnOff,                                  !- Name
  0,                                      !- Lower Limit Value {BasedOnField A3}
  1,                                      !- Upper Limit Value {BasedOnField A3}
  Discrete,                               !- Numeric Type
  availability;                           !- Unit Type

ScheduleTypeLimits,
  OnOff hvac_library,                     !- Name
  0,                                      !- Lower Limit Value {BasedOnField A3}
  1,                                      !- Upper Limit Value {BasedOnField A3}
  Discrete,                               !- Numeric Type
  availability;                           !- Unit Type

ScheduleTypeLimits,
  Percent,                                !- Name
  0,                                      !- Lower Limit Value {BasedOnField A3}
  100,                                    !- Upper Limit Value {BasedOnField A3}
  Continuous,                             !- Numeric Type
  percent;                                !- Unit Type

ScheduleTypeLimits,
  Temperature,                            !- Name
  ,                                       !- Lower Limit Value {BasedOnField A3}
  ,                                       !- Upper Limit Value {BasedOnField A3}
  Continuous,                             !- Numeric Type
  temperature;                            !- Unit Type

ScheduleTypeLimits,
  Temperature 1,                          !- Name
  -50,                                    !- Lower Limit Value {BasedOnField A3}
  50,                                     !- Upper Limit Value {BasedOnField A3}
  Continuous,                             !- Numeric Type
  temperature;                            !- Unit Type

ScheduleTypeLimits,
  Temperature 2,                          !- Name
  0,                                      !- Lower Limit Value {BasedOnField A3}
  50,                                     !- Upper Limit Value {BasedOnField A3}
  Continuous,                             !- Numeric Type
  temperature;                            !- Unit Type

ScheduleTypeLimits,
  Temperature Schedule Type Limits,       !- Name
  0,                                      !- Lower Limit Value {BasedOnField A3}
  100,                                    !- Upper Limit Value {BasedOnField A3}
  Continuous,                             !- Numeric Type
  temperature;                            !- Unit Type

ScheduleTypeLimits,
  Velocity,                               !- Name
  0,                                      !- Lower Limit Value {BasedOnField A3}
  ,                                       !- Upper Limit Value {BasedOnField A3}
  Continuous,                             !- Numeric Type
  velocity;                               !- Unit Type

Schedule:Constant,
  Always On Discrete,                     !- Name
  OnOff,                                  !- Schedule Type Limits Name
  1;                                      !- Hourly Value

Schedule:Constant,
  Always On Discrete hvac_library,        !- Name
  OnOff hvac_library,                     !- Schedule Type Limits Name
  1;                                      !- Hourly Value

Schedule:Day:Interval,
  Chilled Water Loop Temp - 44F Default,  !- Name
  Temperature,                            !- Schedule Type Limits Name
  No,                                     !- Interpolate to Timestep
  24:00,                                  !- Time 1 {hh:mm}
  6.66666698455811;                       !- Value Until Time 1

Schedule:Day:Interval,
  Economizer Max OA Fraction 70 pct Default, !- Name
  ,                                       !- Schedule Type Limits Name
  No,                                     !- Interpolate to Timestep
  24:00,                                  !- Time 1 {hh:mm}
  0.7;                                    !- Value Until Time 1

Schedule:Day:Interval,
  Heat Pump Loop High Temp - 65F Default, !- Name
  Temperature,                            !- Schedule Type Limits Name
  No,                                     !- Interpolate to Timestep
  24:00,                                  !- Time 1 {hh:mm}
  18.3333333333334;                       !- Value Until Time 1

Schedule:Day:Interval,
  Heat Pump Loop High Temp - 65F Default 1, !- Name
  Temperature,                            !- Schedule Type Limits Name
  No,                                     !- Interpolate to Timestep
  24:00,                                  !- Time 1 {hh:mm}
  18.3333333333334;                       !- Value Until Time 1

Schedule:Day:Interval,
  Heat Pump Loop Low Temp - 41F Default,  !- Name
  Temperature,                            !- Schedule Type Limits Name
  No,                                     !- Interpolate to Timestep
  24:00,                                  !- Time 1 {hh:mm}
  5.00000000000006;                       !- Value Until Time 1

Schedule:Day:Interval,
  Heat Pump Loop Low Temp - 41F Default 1, !- Name
  Temperature,                            !- Schedule Type Limits Name
  No,                                     !- Interpolate to Timestep
  24:00,                                  !- Time 1 {hh:mm}
  5.00000000000006;                       !- Value Until Time 1

Schedule:Day:Interval,
  Hot Water Loop Temp - 180F Default,     !- Name
  Temperature,                            !- Schedule Type Limits Name
  No,                                     !- Interpolate to Timestep
  24:00,                                  !- Time 1 {hh:mm}
  82.2222222222223;                       !- Value Until Time 1

Schedule:Day:Interval,
  OfficeLarge ALWAYS_ON Default,          !- Name
  Fractional,                             !- Schedule Type Limits Name
  No,                                     !- Interpolate to Timestep
  24:00,                                  !- Time 1 {hh:mm}
  1;                                      !- Value Until Time 1

Schedule:Day:Interval,
  OfficeLarge ALWAYS_ON Summer Design Day, !- Name
  Fractional,                             !- Schedule Type Limits Name
  No,                                     !- Interpolate to Timestep
  24:00,                                  !- Time 1 {hh:mm}
  1;                                      !- Value Until Time 1

Schedule:Day:Interval,
  OfficeLarge ALWAYS_ON Winter Design Day, !- Name
  Fractional,                             !- Schedule Type Limits Name
  No,                                     !- Interpolate to Timestep
  24:00,                                  !- Time 1 {hh:mm}
  1;                                      !- Value Until Time 1

Schedule:Day:Interval,
  Schedule Day 25,                        !- Name
  Temperature,                            !- Schedule Type Limits Name
  No,                                     !- Interpolate to Timestep
  24:00,                                  !- Time 1 {hh:mm}
  22;                                     !- Value Until Time 1

Schedule:Day:Interval,
  Schedule Day 26,                        !- Name
  Temperature,                            !- Schedule Type Limits Name
  No,                                     !- Interpolate to Timestep
  24:00,                                  !- Time 1 {hh:mm}
  60;                                     !- Value Until Time 1

Schedule:Week:Daily,
  Chilled Water Loop Temp - 44F Week Rule - Jan1-Dec31, !- Name
  Chilled Water Loop Temp - 44F Default,  !- Sunday Schedule:Day Name
  Chilled Water Loop Temp - 44F Default,  !- Monday Schedule:Day Name
  Chilled Water Loop Temp - 44F Default,  !- Tuesday Schedule:Day Name
  Chilled Water Loop Temp - 44F Default,  !- Wednesday Schedule:Day Name
  Chilled Water Loop Temp - 44F Default,  !- Thursday Schedule:Day Name
  Chilled Water Loop Temp - 44F Default,  !- Friday Schedule:Day Name
  Chilled Water Loop Temp - 44F Default,  !- Saturday Schedule:Day Name
  Chilled Water Loop Temp - 44F Default,  !- Holiday Schedule:Day Name
  Chilled Water Loop Temp - 44F Default,  !- SummerDesignDay Schedule:Day Name
  Chilled Water Loop Temp - 44F Default,  !- WinterDesignDay Schedule:Day Name
  Chilled Water Loop Temp - 44F Default,  !- CustomDay1 Schedule:Day Name
  Chilled Water Loop Temp - 44F Default;  !- CustomDay2 Schedule:Day Name

Schedule:Year,
  Chilled Water Loop Temp - 44F,          !- Name
  Temperature,                            !- Schedule Type Limits Name
  Chilled Water Loop Temp - 44F Week Rule - Jan1-Dec31, !- Schedule:Week Name 1
  1,                                      !- Start Month 1
  1,                                      !- Start Day 1
  12,                                     !- End Month 1
  31;                                     !- End Day 1


!!!!!!!!!!!!!!!!!!!!!!!!!!!!!!!!!!!!!!!
! ~~~~~~~~~~~~~~~~~~~~~~~~~~~~~~~~~~~~~~~~~~~~~~~~~~~~~~~~~~~~~~~~~~~~~~~~~~~~~~~~
! LoadProfile:Plant
LoadProfile:Plant,
  District Cooling Load Profile,          !- Name
  Node 3,                                 !- Inlet Node Name
  Node 4,                                 !- Outlet Node Name
  Cooling Load Profile Schedule, !- Load Schedule Name (From CSV)
  ! District Cooling Load Profile Schedule, !- Load Schedule Name (Fixed)
  0.002,                                  !- Peak Flow Rate {m3/s}
  Always On Discrete hvac_library;        !- Flow Rate Fraction Schedule Name

LoadProfile:Plant,
  District Heating Load Profile,          !- Name
  Node 1,                                 !- Inlet Node Name
  Node 2,                                 !- Outlet Node Name
  Heating Load Profile Schedule, !- Load Schedule Name (From CSV)
  ! District Heating Load Profile Schedule, !- Load Schedule Name (Fixed)
  0.002,                                  !- Peak Flow Rate {m3/s}
  Always On Discrete hvac_library;        !- Flow Rate Fraction Schedule Name

! ~~~~~~~~~~~~~~~~~~~~~~~~~~~~~~~~~~~~~~~~~~~~~~~~~~~~~~~~~~~~~~~~~~~~~~~~~~~~~~~~
! Important: schedule file for loadprofile:plant

Schedule:File,
  Heating Load Profile Schedule,                        !- Name
  Any Number,                             !- Schedule Type Limits Name
  sample_loadprofile.csv, !- File Name
  2,                                      !- Column Number
  1,                                      !- Rows to Skip at Top
  ,                                       !- Number of Hours of Data
  Comma,                                  !- Column Separator
  No;                                     !- Interpolate to Timestep

Schedule:File,
  Cooling Load Profile Schedule,                        !- Name
  Any Number,                             !- Schedule Type Limits Name
  sample_loadprofile.csv, !- File Name
  3,                                      !- Column Number
  1,                                      !- Rows to Skip at Top
  ,                                       !- Number of Hours of Data
  Comma,                                  !- Column Separator
  No;                                     !- Interpolate to Timestep
! ~~~~~~~~~~~~~~~~~~~~~~~~~~~~~~~~~~~~~~~~~~~~~~~~~~~~~~~~~~~~~~~~~~~~~~~~~~~~~~~~
! Old fixed schedule for loadprofile:plant
! ~~~~~~~~~~~~~~~~~~~~~~~~~~~~~~~~~~~~~~~~~~~~~~~~~~~~~~~~~~~~~~~~~~~~~~~~~~~~~~~~
Schedule:Year,
  District Cooling Load Profile Schedule, !- Name
  Dimensionless,                          !- Schedule Type Limits Name
  District Cooling Load Profile Schedule Week Rule - Jan1-Dec31, !- Schedule:Week Name 1
  1,                                      !- Start Month 1
  1,                                      !- Start Day 1
  12,                                     !- End Month 1
  31;                                     !- End Day 1

Schedule:Week:Daily,
  District Cooling Load Profile Schedule Week Rule - Jan1-Dec31, !- Name
  Schedule Day 10,                        !- Sunday Schedule:Day Name
  Schedule Day 10,                        !- Monday Schedule:Day Name
  Schedule Day 10,                        !- Tuesday Schedule:Day Name
  Schedule Day 10,                        !- Wednesday Schedule:Day Name
  Schedule Day 10,                        !- Thursday Schedule:Day Name
  Schedule Day 10,                        !- Friday Schedule:Day Name
  Schedule Day 10,                        !- Saturday Schedule:Day Name
  Schedule Day 10,                        !- Holiday Schedule:Day Name
  Schedule Day 10,                        !- SummerDesignDay Schedule:Day Name
  Schedule Day 10,                        !- WinterDesignDay Schedule:Day Name
  Schedule Day 10,                        !- CustomDay1 Schedule:Day Name
  Schedule Day 10;                        !- CustomDay2 Schedule:Day Name

Schedule:Day:Interval,
  Schedule Day 10,                        !- Name
  Dimensionless,                          !- Schedule Type Limits Name
  No,                                     !- Interpolate to Timestep
  24:00,                                  !- Time 1 {hh:mm}
  -2999.99951171875;                      !- Value Until Time 1

Schedule:Year,
  District Heating Load Profile Schedule, !- Name
  Dimensionless,                          !- Schedule Type Limits Name
  District Heating Load Profile Schedule Week Rule - Jan1-Dec31, !- Schedule:Week Name 1
  1,                                      !- Start Month 1
  1,                                      !- Start Day 1
  12,                                     !- End Month 1
  31;                                     !- End Day 1

Schedule:Week:Daily,
  District Heating Load Profile Schedule Week Rule - Jan1-Dec31, !- Name
  Schedule Day 27,                        !- Sunday Schedule:Day Name
  Schedule Day 27,                        !- Monday Schedule:Day Name
  Schedule Day 27,                        !- Tuesday Schedule:Day Name
  Schedule Day 27,                        !- Wednesday Schedule:Day Name
  Schedule Day 27,                        !- Thursday Schedule:Day Name
  Schedule Day 27,                        !- Friday Schedule:Day Name
  Schedule Day 27,                        !- Saturday Schedule:Day Name
  Schedule Day 27,                        !- Holiday Schedule:Day Name
  Schedule Day 27,                        !- SummerDesignDay Schedule:Day Name
  Schedule Day 27,                        !- WinterDesignDay Schedule:Day Name
  Schedule Day 27,                        !- CustomDay1 Schedule:Day Name
  Schedule Day 27;                        !- CustomDay2 Schedule:Day Name

Schedule:Day:Interval,
  Schedule Day 27,                        !- Name
  Dimensionless,                          !- Schedule Type Limits Name
  No,                                     !- Interpolate to Timestep
  24:00,                                  !- Time 1 {hh:mm}
  10000;                                  !- Value Until Time 1
! ~~~~~~~~~~~~~~~~~~~~~~~~~~~~~~~~~~~~~~~~~~~~~~~~~~~~~~~~~~~~~~~~~~~~~~~~~~~~~~~~

Schedule:Week:Daily,
  Heat Pump Loop High Temp - 65F Week Rule - Jan1-Dec31, !- Name
  Heat Pump Loop High Temp - 65F Default, !- Sunday Schedule:Day Name
  Heat Pump Loop High Temp - 65F Default, !- Monday Schedule:Day Name
  Heat Pump Loop High Temp - 65F Default, !- Tuesday Schedule:Day Name
  Heat Pump Loop High Temp - 65F Default, !- Wednesday Schedule:Day Name
  Heat Pump Loop High Temp - 65F Default, !- Thursday Schedule:Day Name
  Heat Pump Loop High Temp - 65F Default, !- Friday Schedule:Day Name
  Heat Pump Loop High Temp - 65F Default, !- Saturday Schedule:Day Name
  Heat Pump Loop High Temp - 65F Default, !- Holiday Schedule:Day Name
  Heat Pump Loop High Temp - 65F Default, !- SummerDesignDay Schedule:Day Name
  Heat Pump Loop High Temp - 65F Default, !- WinterDesignDay Schedule:Day Name
  Heat Pump Loop High Temp - 65F Default, !- CustomDay1 Schedule:Day Name
  Heat Pump Loop High Temp - 65F Default; !- CustomDay2 Schedule:Day Name

Schedule:Year,
  Heat Pump Loop High Temp - 65F,         !- Name
  Temperature,                            !- Schedule Type Limits Name
  Heat Pump Loop High Temp - 65F Week Rule - Jan1-Dec31, !- Schedule:Week Name 1
  1,                                      !- Start Month 1
  1,                                      !- Start Day 1
  12,                                     !- End Month 1
  31;                                     !- End Day 1

Schedule:Week:Daily,
  Heat Pump Loop High Temp - 65F 1 Week Rule - Jan1-Dec31, !- Name
  Heat Pump Loop High Temp - 65F Default 1, !- Sunday Schedule:Day Name
  Heat Pump Loop High Temp - 65F Default 1, !- Monday Schedule:Day Name
  Heat Pump Loop High Temp - 65F Default 1, !- Tuesday Schedule:Day Name
  Heat Pump Loop High Temp - 65F Default 1, !- Wednesday Schedule:Day Name
  Heat Pump Loop High Temp - 65F Default 1, !- Thursday Schedule:Day Name
  Heat Pump Loop High Temp - 65F Default 1, !- Friday Schedule:Day Name
  Heat Pump Loop High Temp - 65F Default 1, !- Saturday Schedule:Day Name
  Heat Pump Loop High Temp - 65F Default 1, !- Holiday Schedule:Day Name
  Heat Pump Loop High Temp - 65F Default 1, !- SummerDesignDay Schedule:Day Name
  Heat Pump Loop High Temp - 65F Default 1, !- WinterDesignDay Schedule:Day Name
  Heat Pump Loop High Temp - 65F Default 1, !- CustomDay1 Schedule:Day Name