
! ~~~~~~~~~~~~~~~~~~~~~~~~~~~~~~~~~~~~~~~~~~~~~~~~~~~~~~~~~~~~~~~~~~~~~~~~~~~~~~
! Basic simulation required objects

Version,
  9.1;                                    !- Version Identifier

Timestep,
  6;                                      !- Number of Timesteps per Hour

Building,
  -LargeOfficeDetailed-ASHRAE 169-2006-2A created: 2019-07-15 15:01:46 -0700, !- Name
  0,                                      !- North Axis {deg}
  City,                                   !- Terrain
  0.04,                                   !- Loads Convergence Tolerance Value
  0.2,                                    !- Temperature Convergence Tolerance Value {deltaC}
  FullInteriorAndExterior,                !- Solar Distribution
  25,                                     !- Maximum Number of Warmup Days
  6;                                      !- Minimum Number of Warmup Days

SimulationControl,
  No,                                    !- Do Zone Sizing Calculation
  Yes,                                    !- Do System Sizing Calculation
  Yes,                                    !- Do Plant Sizing Calculation
  No,                                     !- Run Simulation for Sizing Periods
  Yes;                                    !- Run Simulation for Weather File Run Periods

RunPeriodControl:DaylightSavingTime,
  2nd Sunday in March,                    !- Start Date
  1st Sunday in November;                 !- End Date

OutputControl:ReportingTolerances,
  0.2,                                    !- Tolerance for Time Heating Setpoint Not Met {deltaC}
  0.2;                                    !- Tolerance for Time Cooling Setpoint Not Met {deltaC}

RunPeriod,
  Run Period 1,                           !- Name
  1,                                      !- Begin Month
  1,                                      !- Begin Day of Month
  2006,                                   !- Begin Year
  12,                                     !- End Month
  31,                                     !- End Day of Month
  2006,                                   !- End Year
  Sunday,                                 !- Day of Week for Start Day
  No,                                     !- Use Weather File Holidays and Special Days
  No,                                     !- Use Weather File Daylight Saving Period
  No,                                     !- Apply Weekend Holiday Rule
  Yes,                                    !- Use Weather File Rain Indicators
  Yes;                                    !- Use Weather File Snow Indicators

GlobalGeometryRules,
  UpperLeftCorner,                        !- Starting Vertex Position
  Counterclockwise,                       !- Vertex Entry Direction
  Relative,                               !- Coordinate System
  Relative,                               !- Daylighting Reference Point Coordinate System
  Relative;                               !- Rectangular Surface Coordinate System

SizingPeriod:DesignDay,
  Houston Bush Intercontinental Ann Clg .4% Condns DB=>MWB, !- Name
  7,                                      !- Month
  21,                                     !- Day of Month
  SummerDesignDay,                        !- Day Type
  36,                                     !- Maximum Dry-Bulb Temperature {C}
  10.1,                                   !- Daily Dry-Bulb Temperature Range {deltaC}
  DefaultMultipliers,                     !- Dry-Bulb Temperature Range Modifier Type
  ,                                       !- Dry-Bulb Temperature Range Modifier Day Schedule Name
  Wetbulb,                                !- Humidity Condition Type
  24.8,                                   !- Wetbulb or DewPoint at Maximum Dry-Bulb {C}
  ,                                       !- Humidity Condition Day Schedule Name
  ,                                       !- Humidity Ratio at Maximum Dry-Bulb {kgWater/kgDryAir}
  ,                                       !- Enthalpy at Maximum Dry-Bulb {J/kg}
  ,                                       !- Daily Wet-Bulb Temperature Range {deltaC}
  100977,                                 !- Barometric Pressure {Pa}
  3.5,                                    !- Wind Speed {m/s}
  170,                                    !- Wind Direction {deg}
  No,                                     !- Rain Indicator
  No,                                     !- Snow Indicator
  No,                                     !- Daylight Saving Time Indicator
  ASHRAETau,                              !- Solar Model Indicator
  ,                                       !- Beam Solar Day Schedule Name
  ,                                       !- Diffuse Solar Day Schedule Name
  0.499,                                  !- ASHRAE Clear Sky Optical Depth for Beam Irradiance (taub) {dimensionless}
  1.97;                                   !- ASHRAE Clear Sky Optical Depth for Diffuse Irradiance (taud) {dimensionless}

SizingPeriod:DesignDay,
  Houston Bush Intercontinental Ann Htg 99.6% Condns DB, !- Name
  1,                                      !- Month
  21,                                     !- Day of Month
  WinterDesignDay,                        !- Day Type
  -1.6,                                   !- Maximum Dry-Bulb Temperature {C}
  0,                                      !- Daily Dry-Bulb Temperature Range {deltaC}
  DefaultMultipliers,                     !- Dry-Bulb Temperature Range Modifier Type
  ,                                       !- Dry-Bulb Temperature Range Modifier Day Schedule Name
  Wetbulb,                                !- Humidity Condition Type
  -1.6,                                   !- Wetbulb or DewPoint at Maximum Dry-Bulb {C}
  ,                                       !- Humidity Condition Day Schedule Name
  ,                                       !- Humidity Ratio at Maximum Dry-Bulb {kgWater/kgDryAir}
  ,                                       !- Enthalpy at Maximum Dry-Bulb {J/kg}
  ,                                       !- Daily Wet-Bulb Temperature Range {deltaC}
  100977,                                 !- Barometric Pressure {Pa}
  2.8,                                    !- Wind Speed {m/s}
  0,                                      !- Wind Direction {deg}
  No,                                     !- Rain Indicator
  No,                                     !- Snow Indicator
  No,                                     !- Daylight Saving Time Indicator
  ASHRAEClearSky,                         !- Solar Model Indicator
  ,                                       !- Beam Solar Day Schedule Name
  ,                                       !- Diffuse Solar Day Schedule Name
  ,                                       !- ASHRAE Clear Sky Optical Depth for Beam Irradiance (taub) {dimensionless}
  ,                                       !- ASHRAE Clear Sky Optical Depth for Diffuse Irradiance (taud) {dimensionless}
  0;                                      !- Sky Clearness

! ~~~~~~~~~~~~~~~~~~~~~~~~~~~~~~~~~~~~~~~~~~~~~~~~~~~~~~~~~~~~~~~~~~~~~~~~~~~~~~

! ~~~~~~~~~~~~~~~~~~~~~~~~~~~~~~~~~~~~~~~~~~~~~~~~~~~~~~~~~~~~~~~~~~~~~~~~~~~~~~

! ##############################################################################
! Water Heating Plant Loop
! ##############################################################################
Sizing:Plant,
    HW Loop,                 !- Plant or Condenser Loop Name
    Heating,                 !- Loop Type
    82,                      !- Design Loop Exit Temperature {C}
    11,                      !- Loop Design Temperature Difference {deltaC}
    NonCoincident,           !- Sizing Option
    1,                       !- Zone Timesteps in Averaging Window
    None;                    !- Coincident Sizing Factor Mode

PlantLoop,
    HW Loop,                 !- Name
    Water,                   !- Fluid Type
    ,                        !- User Defined Fluid Type
    HW Loop Operation Schemes,  !- Plant Equipment Operation Scheme Name
    HW Loop Supply Outlet Node,  !- Loop Temperature Setpoint Node Name
    100,                     !- Maximum Loop Temperature {C}
    0,                       !- Minimum Loop Temperature {C}
    Autosize,                !- Maximum Loop Flow Rate {m3/s}
    0,                       !- Minimum Loop Flow Rate {m3/s}
    Autocalculate,           !- Plant Loop Volume {m3}
    HW Loop Supply Inlet Node,  !- Plant Side Inlet Node Name
    HW Loop Supply Outlet Node,  !- Plant Side Outlet Node Name
    HW Loop Supply Branches, !- Plant Side Branch List Name
    HW Loop Supply Connector List,  !- Plant Side Connector List Name
    HW Loop Demand Inlet Node,  !- Demand Side Inlet Node Name
    HW Loop Demand Outlet Node,  !- Demand Side Outlet Node Name
    HW Loop Demand Branches, !- Demand Side Branch List Name
    HW Loop Demand Connector List,  !- Demand Side Connector List Name
    Optimal,                 !- Load Distribution Scheme
    ,                        !- Availability Manager List Name
    SingleSetpoint;          !- Plant Loop Demand Calculation Scheme

PlantEquipmentList,
    HW Loop Heating Equipment List,  !- Name
    CentralHeatPumpSystem,   !- Equipment 1 Object Type
    CentralHeatPumpSystem;   !- Equipment 1 Name

PlantEquipmentOperation:HeatingLoad,
    HW Loop Heating Operation Scheme,  !- Name
    0,                       !- Load Range 1 Lower Limit {W}
    1000000000,              !- Load Range 1 Upper Limit {W}
    HW Loop Heating Equipment List;  !- Range 1 Equipment List Name

PlantEquipmentOperationSchemes,
    HW Loop Operation Schemes,  !- Name
    PlantEquipmentOperation:HeatingLoad,  !- Control Scheme 1 Object Type
    HW Loop Heating Operation Scheme,  !- Control Scheme 1 Name
    Always On Discrete;      !- Control Scheme 1 Schedule Name

SetpointManager:Scheduled,
    Setpoint Manager Scheduled 2,  !- Name
    Temperature,             !- Control Variable
    Hot_Water_Temperature,   !- Schedule Name
    HW Loop Supply Outlet Node;  !- Setpoint Node or NodeList Name

!----------------------------------------------------------------
! Supply Loop
!----------------------------------------------------------------
BranchList,
    HW Loop Supply Branches, !- Name
    HW Loop Supply Circ Pump Branch,  !- Branch 1 Name
    HW Loop Supply CentralHeatPumpSystem Branch, !- Branch 2 Name
    HW Loop Supply Outlet Branch;  !- Branch 3 Name

Branch,
    HW Loop Supply Circ Pump Branch,  !- Name
    ,                        !- Pressure Drop Curve Name
    Pump:VariableSpeed,      !- Component 1 Object Type
    HW Loop VSD Pump,        !- Component 1 Name
    HW Loop Supply Inlet Node,  !- Component 1 Inlet Node Name
    HW Loop Supply Side HW Loop VSD Pump Outlet Node;  !- Component 1 Outlet Node Name

    Pump:VariableSpeed,
        HW Loop VSD Pump,        !- Name
        HW Loop Supply Inlet Node,  !- Inlet Node Name
        HW Loop Supply Side HW Loop VSD Pump Outlet Node,  !- Outlet Node Name
        Autosize,                !- Design Maximum Flow Rate {m3/s}
        179352,                  !- Design Pump Head {Pa}
        Autosize,                !- Design Power Consumption {W}
        0.9,                     !- Motor Efficiency
        0,                       !- Fraction of Motor Inefficiencies to Fluid Stream
        0,                       !- Coefficient 1 of the Part Load Performance Curve
        1,                       !- Coefficient 2 of the Part Load Performance Curve
        0,                       !- Coefficient 3 of the Part Load Performance Curve
        0,                       !- Coefficient 4 of the Part Load Performance Curve
        0,                       !- Design Minimum Flow Rate {m3/s}
        Intermittent,            !- Pump Control Type
        ,                        !- Pump Flow Rate Schedule Name
        ,                        !- Pump Curve Name
        ,                        !- Impeller Diameter {m}
        ,                        !- VFD Control Type
        ,                        !- Pump rpm Schedule Name
        ,                        !- Minimum Pressure Schedule {Pa}
        ,                        !- Maximum Pressure Schedule {Pa}
        ,                        !- Minimum RPM Schedule {Rotations Per Minute}
        ,                        !- Maximum RPM Schedule {Rotations Per Minute}
        ,                        !- Zone Name
        0.5,                     !- Skin Loss Radiative Fraction
        PowerPerFlowPerPressure, !- Design Power Sizing Method
        348701.1,                !- Design Electric Power per Unit Flow Rate {W/(m3/s)}
        1.282051282,             !- Design Shaft Power per Unit Flow Rate per Unit Head {W/((m3/s)-Pa)}
        0,                       !- Design Minimum Flow Rate Fraction
        General;                 !- End-Use Subcategory

Connector:Splitter,
    HW Loop Supply Splitter, !- Name
    HW Loop Supply Circ Pump Branch,  !- Inlet Branch Name
    HW Loop Supply CentralHeatPumpSystem Branch; !- Outlet Branch 1 Name

Branch,
    HW Loop Supply CentralHeatPumpSystem Branch, !- Name
    ,                        !- Pressure Drop Curve Name
    CentralHeatPumpSystem,   !- Component 1 Object Type
    CentralHeatPumpSystem,   !- Component 1 Name
    HW Loop Supply Side CentralHeatPumpSystem Inlet Node,  !- Component 1 Inlet Node Name
    HW Loop Supply Side CentralHeatPumpSystem Outlet Node;  !- Component 1 Outlet Node Name

Connector:Mixer,
    HW Loop Supply Mixer,    !- Name
    HW Loop Supply Outlet Branch,  !- Outlet Branch Name
    HW Loop Supply CentralHeatPumpSystem Branch; !- Inlet Branch 1 Name

Branch,
    HW Loop Supply Outlet Branch,  !- Name
    ,                        !- Pressure Drop Curve Name
    Pipe:Adiabatic,          !- Component 1 Object Type
    HW Loop Supply Outlet Pipe,  !- Component 1 Name
    HW Loop Supply Outlet Pipe Node,  !- Component 1 Inlet Node Name
    HW Loop Supply Outlet Node;  !- Component 1 Outlet Node Name

    Pipe:Adiabatic,
        HW Loop Supply Outlet Pipe,  !- Name
        HW Loop Supply Outlet Pipe Node,  !- Inlet Node Name
        HW Loop Supply Outlet Node;  !- Outlet Node Name

ConnectorList,
    HW Loop Supply Connector List,  !- Name
    Connector:Splitter,      !- Connector 1 Object Type
    HW Loop Supply Splitter, !- Connector 1 Name
    Connector:Mixer,         !- Connector 2 Object Type
    HW Loop Supply Mixer;    !- Connector 2 Name

!----------------------------------------------------------------
! Demand Loop
!----------------------------------------------------------------
BranchList,
    HW Loop Demand Branches, !- Name
    HW Loop Demand Inlet Branch,  !- Branch 1 Name
    HW Loop Demand LoadProfie Branch, !- Branch 2 Name
    HW Loop Demand Bypass Branch,  !- Branch 8 Name
    HW Loop Demand Outlet Branch;  !- Branch 9 Name

Branch,
    HW Loop Demand Inlet Branch,  !- Name
    ,                        !- Pressure Drop Curve Name
    Pipe:Adiabatic,          !- Component 1 Object Type
    HW Loop Demand Inlet Pipe,  !- Component 1 Name
    HW Loop Demand Inlet Node,  !- Component 1 Inlet Node Name
    HW Loop Demand Inlet Pipe Node;  !- Component 1 Outlet Node Name

    Pipe:Adiabatic,
        HW Loop Demand Inlet Pipe,  !- Name
        HW Loop Demand Inlet Node,  !- Inlet Node Name
        HW Loop Demand Inlet Pipe Node;  !- Outlet Node Name

Connector:Splitter,
    HW Loop Demand Splitter, !- Name
    HW Loop Demand Inlet Branch,  !- Inlet Branch Name
    HW Loop Demand LoadProfie Branch, !- Outlet Branch 1 Name
    HW Loop Demand Bypass Branch;  !- Outlet Branch 7 Name

    ! LP goes here
    Branch,
        HW Loop Demand LoadProfie Branch, !- Name
        ,                        !- Pressure Drop Curve Name
        LoadProfile:Plant,                      !- Component Object Type 1
        District Heating Load Profile,          !- Component Name 1
        Heating LoadProfile Inlet Node,  !- Component 1 Inlet Node Name
        Heating LoadProfile Outlet Node;  !- Component 1 Outlet Node Name

    Branch,
        HW Loop Demand Bypass Branch,  !- Name
        ,                        !- Pressure Drop Curve Name
        Pipe:Adiabatic,          !- Component 1 Object Type
        HW Loop Demand Bypass Pipe,  !- Component 1 Name
        HW Loop Demand Bypass Pipe Inlet Node,  !- Component 1 Inlet Node Name
        HW Loop Demand Bypass Pipe Outlet Node;  !- Component 1 Outlet Node Name

        Pipe:Adiabatic,
            HW Loop Demand Bypass Pipe,  !- Name
            HW Loop Demand Bypass Pipe Inlet Node,  !- Inlet Node Name
            HW Loop Demand Bypass Pipe Outlet Node;  !- Outlet Node Name

Connector:Mixer,
    HW Loop Demand Mixer,    !- Name
    HW Loop Demand Outlet Branch,  !- Outlet Branch Name
    HW Loop Demand LoadProfie Branch, !- Inlet Branch 1 Name
    HW Loop Demand Bypass Branch;  !- Inlet Branch 7 Name

Branch,
    HW Loop Demand Outlet Branch,  !- Name
    ,                        !- Pressure Drop Curve Name
    Pipe:Adiabatic,          !- Component 1 Object Type
    HW Loop Demand Outlet Pipe,  !- Component 1 Name
    HW Loop Demand Outlet Pipe Node,  !- Component 1 Inlet Node Name
    HW Loop Demand Outlet Node;  !- Component 1 Outlet Node Name

    Pipe:Adiabatic,
        HW Loop Demand Outlet Pipe,  !- Name
        HW Loop Demand Outlet Pipe Node,  !- Inlet Node Name
        HW Loop Demand Outlet Node;  !- Outlet Node Name

ConnectorList,
    HW Loop Demand Connector List,  !- Name
    Connector:Splitter,      !- Connector 1 Object Type
    HW Loop Demand Splitter, !- Connector 1 Name
    Connector:Mixer,         !- Connector 2 Object Type
    HW Loop Demand Mixer;    !- Connector 2 Name

! ##############################################################################
! Water Cooling Plant Loop
! ##############################################################################

Sizing:Plant,
    ChW Loop,                !- Plant or Condenser Loop Name
    Cooling,                 !- Loop Type
    7.22,                    !- Design Loop Exit Temperature {C}
    6.67,                    !- Loop Design Temperature Difference {deltaC}
    NonCoincident,           !- Sizing Option
    1,                       !- Zone Timesteps in Averaging Window
    None;                    !- Coincident Sizing Factor Mode

PlantLoop,
    ChW Loop,                !- Name
    Water,                   !- Fluid Type
    ,                        !- User Defined Fluid Type
    ChW Loop Operation Schemes,  !- Plant Equipment Operation Scheme Name
    ChW Loop Supply Outlet Node,  !- Loop Temperature Setpoint Node Name
    100,                     !- Maximum Loop Temperature {C}
    0,                       !- Minimum Loop Temperature {C}
    Autosize,                !- Maximum Loop Flow Rate {m3/s}
    0,                       !- Minimum Loop Flow Rate {m3/s}
    Autocalculate,           !- Plant Loop Volume {m3}
    ChW Loop Supply Inlet Node,  !- Plant Side Inlet Node Name
    ChW Loop Supply Outlet Node,  !- Plant Side Outlet Node Name
    ChW Loop Supply Branches,!- Plant Side Branch List Name
    ChW Loop Supply Connector List,  !- Plant Side Connector List Name
    ChW Loop Demand Inlet Node,  !- Demand Side Inlet Node Name
    ChW Loop Demand Outlet Node,  !- Demand Side Outlet Node Name
    ChW Loop Demand Branches,!- Demand Side Branch List Name
    ChW Loop Demand Connector List,  !- Demand Side Connector List Name
    Optimal,                 !- Load Distribution Scheme
    ,                        !- Availability Manager List Name
    SingleSetpoint;          !- Plant Loop Demand Calculation Scheme

PlantEquipmentList,
    ChW Loop Cooling Equipment List,  !- Name
    CentralHeatPumpSystem,   !- Equipment 1 Object Type
    CentralHeatPumpSystem;   !- Equipment 1 Name

PlantEquipmentOperation:CoolingLoad,
    ChW Loop Cooling Operation Scheme,  !- Name
    0,                       !- Load Range 1 Lower Limit {W}
    1000000000,              !- Load Range 1 Upper Limit {W}
    ChW Loop Cooling Equipment List;  !- Range 1 Equipment List Name

PlantEquipmentOperationSchemes,
    ChW Loop Operation Schemes,  !- Name
    PlantEquipmentOperation:CoolingLoad,  !- Control Scheme 1 Object Type
    ChW Loop Cooling Operation Scheme,  !- Control Scheme 1 Name
    Always On Discrete;      !- Control Scheme 1 Schedule Name

SetpointManager:Scheduled,
    Setpoint Manager Scheduled 3,  !- Name
    Temperature,             !- Control Variable
    Chilled_Water_Temperature,  !- Schedule Name
    ChW Loop Supply Outlet Node;  !- Setpoint Node or NodeList Name

!----------------------------------------------------------------
! Supply Loop
!----------------------------------------------------------------
BranchList,
    ChW Loop Supply Branches,!- Name
    ChW Loop Supply Circ Pump Branch,  !- Branch 1 Name
    ChW Loop Supply CentralHeatPumpSystem Branch,!- Branch 2 Name
    ChW Loop Supply Outlet Branch;  !- Branch 3 Name

Branch,
    ChW Loop Supply Circ Pump Branch,  !- Name
    ,                        !- Pressure Drop Curve Name
    Pump:VariableSpeed,      !- Component 1 Object Type
    ChW Loop VSD Pump,       !- Component 1 Name
    ChW Loop Supply Inlet Node,  !- Component 1 Inlet Node Name
    ChW Loop Supply Side ChW Loop VSD Pump Outlet Node;  !- Component 1 Outlet Node Name

    Pump:VariableSpeed,
        ChW Loop VSD Pump,       !- Name
        ChW Loop Supply Inlet Node,  !- Inlet Node Name
        ChW Loop Supply Side ChW Loop VSD Pump Outlet Node,  !- Outlet Node Name
        Autosize,                !- Design Maximum Flow Rate {m3/s}
        179352,                  !- Design Pump Head {Pa}
        Autosize,                !- Design Power Consumption {W}
        0.9,                     !- Motor Efficiency
        0,                       !- Fraction of Motor Inefficiencies to Fluid Stream
        0,                       !- Coefficient 1 of the Part Load Performance Curve
        1,                       !- Coefficient 2 of the Part Load Performance Curve
        0,                       !- Coefficient 3 of the Part Load Performance Curve
        0,                       !- Coefficient 4 of the Part Load Performance Curve
        0,                       !- Design Minimum Flow Rate {m3/s}
        Intermittent,            !- Pump Control Type
        ,                        !- Pump Flow Rate Schedule Name
        ,                        !- Pump Curve Name
        ,                        !- Impeller Diameter {m}
        ,                        !- VFD Control Type
        ,                        !- Pump rpm Schedule Name
        ,                        !- Minimum Pressure Schedule {Pa}
        ,                        !- Maximum Pressure Schedule {Pa}
        ,                        !- Minimum RPM Schedule {Rotations Per Minute}
        ,                        !- Maximum RPM Schedule {Rotations Per Minute}
        ,                        !- Zone Name
        0.5,                     !- Skin Loss Radiative Fraction
        PowerPerFlowPerPressure, !- Design Power Sizing Method
        348701.1,                !- Design Electric Power per Unit Flow Rate {W/(m3/s)}
        1.282051282,             !- Design Shaft Power per Unit Flow Rate per Unit Head {W/((m3/s)-Pa)}
        0,                       !- Design Minimum Flow Rate Fraction
        General;                 !- End-Use Subcategory

Connector:Splitter,
    ChW Loop Supply Splitter,!- Name
    ChW Loop Supply Circ Pump Branch,  !- Inlet Branch Name
    ChW Loop Supply CentralHeatPumpSystem Branch;!- Outlet Branch 1 Name

Branch,
    ChW Loop Supply CentralHeatPumpSystem Branch,!- Name
    ,                        !- Pressure Drop Curve Name
    CentralHeatPumpSystem,   !- Component 1 Object Type
    CentralHeatPumpSystem,   !- Component 1 Name
    ChW Loop Supply Side CentralHeatPumpSystem Inlet Node,  !- Component 1 Inlet Node Name
    ChW Loop Supply Side CentralHeatPumpSystem Outlet Node;  !- Component 1 Outlet Node Name

Connector:Mixer,
    ChW Loop Supply Mixer,   !- Name
    ChW Loop Supply Outlet Branch,  !- Outlet Branch Name
    ChW Loop Supply CentralHeatPumpSystem Branch;!- Inlet Branch 1 Name

Branch,
    ChW Loop Supply Outlet Branch,  !- Name
    ,                        !- Pressure Drop Curve Name
    Pipe:Adiabatic,          !- Component 1 Object Type
    ChW Loop Supply Outlet Pipe,  !- Component 1 Name
    ChW Loop Supply Outlet Pipe Node,  !- Component 1 Inlet Node Name
    ChW Loop Supply Outlet Node;  !- Component 1 Outlet Node Name

    Pipe:Adiabatic,
        ChW Loop Supply Outlet Pipe,  !- Name
        ChW Loop Supply Outlet Pipe Node,  !- Inlet Node Name
        ChW Loop Supply Outlet Node;  !- Outlet Node Name

ConnectorList,
    ChW Loop Supply Connector List,  !- Name
    Connector:Splitter,      !- Connector 1 Object Type
    ChW Loop Supply Splitter,!- Connector 1 Name
    Connector:Mixer,         !- Connector 2 Object Type
    ChW Loop Supply Mixer;   !- Connector 2 Name


!----------------------------------------------------------------
! Demand Loop
!----------------------------------------------------------------
BranchList,
    ChW Loop Demand Branches,!- Name
    ChW Loop Demand Inlet Branch,  !- Branch 1 Name
    ChW Loop Demand LoadProfile Branch,!- Branch 2 Name
    ChW Loop Demand Bypass Branch,  !- Branch 3 Name
    ChW Loop Demand Outlet Branch;  !- Branch 4 Name

Connector:Splitter,
    ChW Loop Demand Splitter,!- Name
    ChW Loop Demand Inlet Branch,  !- Inlet Branch Name
    ChW Loop Demand LoadProfile Branch,!- Outlet Branch 1 Name
    ChW Loop Demand Bypass Branch;  !- Outlet Branch 2 Name

    Branch,
        ChW Loop Demand Inlet Branch,  !- Name
        ,                        !- Pressure Drop Curve Name
        Pipe:Adiabatic,          !- Component 1 Object Type
        ChW Loop Demand Inlet Pipe,  !- Component 1 Name
        ChW Loop Demand Inlet Node,  !- Component 1 Inlet Node Name
        ChW Loop Demand Inlet Pipe Node;  !- Component 1 Outlet Node Name

        Pipe:Adiabatic,
            ChW Loop Demand Inlet Pipe,  !- Name
            ChW Loop Demand Inlet Node,  !- Inlet Node Name
            ChW Loop Demand Inlet Pipe Node;  !- Outlet Node Name

    ! LP goes here
    Branch,
        ChW Loop Demand LoadProfile Branch,!- Name
        ,                        !- Pressure Drop Curve Name
        LoadProfile:Plant,                      !- Component Object Type 1
        District Cooling Load Profile,          !- Component Name 1
        Cooling LoadProfile Inlet Node,  !- Component 1 Inlet Node Name
        Cooling LoadProfile Outlet Node;  !- Component 1 Outlet Node Name

    Branch,
        ChW Loop Demand Bypass Branch,  !- Name
        ,                        !- Pressure Drop Curve Name
        Pipe:Adiabatic,          !- Component 1 Object Type
        ChW Loop Demand Bypass Pipe,  !- Component 1 Name
        ChW Loop Demand Bypass Pipe Inlet Node,  !- Component 1 Inlet Node Name
        ChW Loop Demand Bypass Pipe Outlet Node;  !- Component 1 Outlet Node Name

        Pipe:Adiabatic,
            ChW Loop Demand Bypass Pipe,  !- Name
            ChW Loop Demand Bypass Pipe Inlet Node,  !- Inlet Node Name
            ChW Loop Demand Bypass Pipe Outlet Node;  !- Outlet Node Name

Connector:Mixer,
    ChW Loop Demand Mixer,   !- Name
    ChW Loop Demand Outlet Branch,  !- Outlet Branch Name
    ChW Loop Demand LoadProfile Branch,!- Inlet Branch 1 Name
    ChW Loop Demand Bypass Branch;  !- Inlet Branch 2 Name

Branch,
    ChW Loop Demand Outlet Branch,  !- Name
    ,                        !- Pressure Drop Curve Name
    Pipe:Adiabatic,          !- Component 1 Object Type
    ChW Loop Demand Outlet Pipe,  !- Component 1 Name
    ChW Loop Demand Outlet Pipe Node,  !- Component 1 Inlet Node Name
    ChW Loop Demand Outlet Node;  !- Component 1 Outlet Node Name

    Pipe:Adiabatic,
        ChW Loop Demand Outlet Pipe,  !- Name
        ChW Loop Demand Outlet Pipe Node,  !- Inlet Node Name
        ChW Loop Demand Outlet Node;  !- Outlet Node Name

ConnectorList,
    ChW Loop Demand Connector List,  !- Name
    Connector:Splitter,      !- Connector 1 Object Type
    ChW Loop Demand Splitter,!- Connector 1 Name
    Connector:Mixer,         !- Connector 2 Object Type
    ChW Loop Demand Mixer;   !- Connector 2 Name


! ##############################################################################
! Water Condensing Plant Loop
! ##############################################################################

Sizing:Plant,
    CndW Loop,               !- Plant or Condenser Loop Name
    Condenser,               !- Loop Type
    29.4,                    !- Design Loop Exit Temperature {C}
    5.6,                     !- Loop Design Temperature Difference {deltaC}
    NonCoincident,           !- Sizing Option
    1,                       !- Zone Timesteps in Averaging Window
    None;                    !- Coincident Sizing Factor Mode

PlantLoop,
    CndW Loop,               !- Name
    Water,                   !- Fluid Type
    ,                        !- User Defined Fluid Type
    CndW Loop Operation Schemes,  !- Plant Equipment Operation Scheme Name
    CndW Loop Supply Outlet Node,  !- Loop Temperature Setpoint Node Name
    100,                     !- Maximum Loop Temperature {C}
    0,                       !- Minimum Loop Temperature {C}
    Autosize,                !- Maximum Loop Flow Rate {m3/s}
    0,                       !- Minimum Loop Flow Rate {m3/s}
    Autocalculate,           !- Plant Loop Volume {m3}
    CndW Loop Supply Inlet Node,  !- Plant Side Inlet Node Name
    CndW Loop Supply Outlet Node,  !- Plant Side Outlet Node Name
    CndW Loop Supply Branches,  !- Plant Side Branch List Name
    CndW Loop Supply Connector List,  !- Plant Side Connector List Name
    CndW Loop Demand Inlet Node,  !- Demand Side Inlet Node Name
    CndW Loop Demand Outlet Node,  !- Demand Side Outlet Node Name
    CndW Loop Demand Branches,  !- Demand Side Branch List Name