!- Windows Line endings 

Version,
    9.1;                      !- Version Identifier

SimulationControl,
    No,                       !- Do Zone Sizing Calculation
    No,                       !- Do System Sizing Calculation
    Yes,                      !- Do Plant Sizing Calculation
    No,                       !- Run Simulation for Sizing Periods
    Yes;                      !- Run Simulation for Weather File Run Periods

Building,
    -LargeOffice-ASHRAE 169-2006-2A created: 2019-06-18 16:12:49 -0700,    !- Name
    0,                        !- North Axis
    City,                     !- Terrain
    0.04,                     !- Loads Convergence Tolerance Value
    0.2,                      !- Temperature Convergence Tolerance Value
    FullInteriorAndExterior,    !- Solar Distribution
    25,                       !- Maximum Number of Warmup Days
    6;                        !- Minimum Number of Warmup Days

Timestep,
    6;                        !- Number of Timesteps per Hour

SizingPeriod:DesignDay,
    Houston Bush Intercontinental Ann Clg .4% Condns DB=>MWB,    !- Name
    7,                        !- Month
    21,                       !- Day of Month
    SummerDesignDay,          !- Day Type
    36,                       !- Maximum DryBulb Temperature
    10.1,                     !- Daily DryBulb Temperature Range
    DefaultMultipliers,       !- DryBulb Temperature Range Modifier Type
    ,                         !- DryBulb Temperature Range Modifier Day Schedule Name
    Wetbulb,                  !- Humidity Condition Type
    24.8,                     !- Wetbulb or DewPoint at Maximum DryBulb
    ,                         !- Humidity Condition Day Schedule Name
    ,                         !- Humidity Ratio at Maximum DryBulb
    ,                         !- Enthalpy at Maximum DryBulb
    ,                         !- Daily WetBulb Temperature Range
    100977,                   !- Barometric Pressure
    3.5,                      !- Wind Speed
    170,                      !- Wind Direction
    No,                       !- Rain Indicator
    No,                       !- Snow Indicator
    No,                       !- Daylight Saving Time Indicator
    ASHRAETau,                !- Solar Model Indicator
    ,                         !- Beam Solar Day Schedule Name
    ,                         !- Diffuse Solar Day Schedule Name
    0.499,                    !- ASHRAE Clear Sky Optical Depth for Beam Irradiance taub
    1.97;                     !- ASHRAE Clear Sky Optical Depth for Diffuse Irradiance taud

SizingPeriod:DesignDay,
    Houston Bush Intercontinental Ann Htg 99.6% Condns DB,    !- Name
    1,                        !- Month
    21,                       !- Day of Month
    WinterDesignDay,          !- Day Type
    -1.6,                     !- Maximum DryBulb Temperature
    0,                        !- Daily DryBulb Temperature Range
    DefaultMultipliers,       !- DryBulb Temperature Range Modifier Type
    ,                         !- DryBulb Temperature Range Modifier Day Schedule Name
    Wetbulb,                  !- Humidity Condition Type
    -1.6,                     !- Wetbulb or DewPoint at Maximum DryBulb
    ,                         !- Humidity Condition Day Schedule Name
    ,                         !- Humidity Ratio at Maximum DryBulb
    ,                         !- Enthalpy at Maximum DryBulb
    ,                         !- Daily WetBulb Temperature Range
    100977,                   !- Barometric Pressure
    2.8,                      !- Wind Speed
    0,                        !- Wind Direction
    No,                       !- Rain Indicator
    No,                       !- Snow Indicator
    No,                       !- Daylight Saving Time Indicator
    ASHRAEClearSky,           !- Solar Model Indicator
    ,                         !- Beam Solar Day Schedule Name
    ,                         !- Diffuse Solar Day Schedule Name
    ,                         !- ASHRAE Clear Sky Optical Depth for Beam Irradiance taub
    ,                         !- ASHRAE Clear Sky Optical Depth for Diffuse Irradiance taud
    0;                        !- Sky Clearness

RunPeriod,
    Run Period 1,             !- Name
    1,                        !- Begin Month
    1,                        !- Begin Day of Month
    2006,                     !- Begin Year
    12,                       !- End Month
    31,                       !- End Day of Month
    2006,                     !- End Year
    Sunday,                   !- Day of Week for Start Day
    No,                       !- Use Weather File Holidays and Special Days
    No,                       !- Use Weather File Daylight Saving Period
    No,                       !- Apply Weekend Holiday Rule
    Yes,                      !- Use Weather File Rain Indicators
    Yes;                      !- Use Weather File Snow Indicators

RunPeriodControl:DaylightSavingTime,
    2nd Sunday in March,      !- Start Date
    1st Sunday in November;    !- End Date

Site:GroundTemperature:Deep,
    14,                       !- January Deep Ground Temperature
    14,                       !- February Deep Ground Temperature
    14,                       !- March Deep Ground Temperature
    14,                       !- April Deep Ground Temperature
    14,                       !- May Deep Ground Temperature
    14,                       !- June Deep Ground Temperature
    14,                       !- July Deep Ground Temperature
    14,                       !- August Deep Ground Temperature
    14,                       !- September Deep Ground Temperature
    14,                       !- October Deep Ground Temperature
    14,                       !- November Deep Ground Temperature
    14;                       !- December Deep Ground Temperature

Site:GroundTemperature:Undisturbed:KusudaAchenbach,
    Ground Heat Exchanger Undisturbed Ground Temperature Model,    !- Name
    1.8,                      !- Soil Thermal Conductivity
    920,                      !- Soil Density
    2200,                     !- Soil Specific Heat
    13.38,                    !- Average Soil Surface Temperature
    3.2,                      !- Average Amplitude of Surface Temperature
    8;                        !- Phase Shift of Minimum Surface Temperature

ScheduleTypeLimits,
    Fraction,                 !- Name
    0,                        !- Lower Limit Value
    1,                        !- Upper Limit Value
    CONTINUOUS;               !- Numeric Type

ScheduleTypeLimits,
    Any Number;               !- Name

ScheduleTypeLimits,
    OnOff hvac_library,       !- Name
    0,                        !- Lower Limit Value
    1,                        !- Upper Limit Value
    Discrete,                 !- Numeric Type
    availability;             !- Unit Type

Schedule:Compact,
    plant loop availability schedule,    !- Name
    Any Number,               !- Schedule Type Limits Name
    Through: 12/31,           !- Field 1
    For: AllDays,             !- Field 2
    Until: 24:00,             !- Field 3
    1;                        !- Field 4

Schedule:Compact,
    CHW loop availability schedule,    !- Name
    Fraction,                 !- Schedule Type Limits Name
    Through: 31 Mar,          !- Field 1
    For: AllDays,             !- Field 2
    Until: 24:00,             !- Field 3
    0,                        !- Field 4
    Through: 30 Sep,          !- Field 5
    For: AllDays,             !- Field 6
    Until: 24:00,             !- Field 7
    1,                        !- Field 8
    Through: 31 Dec,          !- Field 9
    For: AllDays,             !- Field 10
    Until: 24:00,             !- Field 11
    0;                        !- Field 12

Schedule:Compact,
    CHW Supply Temperature Setpoint Schedule,    !- Name
    Any Number,               !- Schedule Type Limits Name
    Through: 12/31,           !- Field 1
    For: AllDays,             !- Field 2
    Until: 24:00,             !- Field 3
    6;                        !- Field 4

Schedule:Compact,
    HW Supply Temperature Setpoint Schedule,    !- Name
    Any Number,               !- Schedule Type Limits Name
    Through: 12/31,           !- Field 1
    For: AllDays,             !- Field 2
    Until: 24:00,             !- Field 3
    40;                       !- Field 4

Schedule:Constant,
    Always On Discrete hvac_library,    !- Name
    OnOff hvac_library,       !- Schedule Type Limits Name
    1;                        !- Hourly Value

Schedule:File,
    Heating Load Profile Schedule,    !- Name
    Any Number,               !- Schedule Type Limits Name
    E:/Users/Han/Documents/GitHub/RoR/dhc-experiments/public/runs/run_1572539493675/RackMultipart20191030-13080-nercdw.csv,    !- File Name
    2,                        !- Column Number
    1,                        !- Rows to Skip at Top
    ,                         !- Number of Hours of Data
    Comma,                    !- Column Separator
    No;                       !- Interpolate to Timestep

Schedule:File,
    Cooling Load Profile Schedule,    !- Name
    Any Number,               !- Schedule Type Limits Name
    E:/Users/Han/Documents/GitHub/RoR/dhc-experiments/public/runs/run_1572539493675/RackMultipart20191030-13080-nercdw.csv,    !- File Name
    3,                        !- Column Number
    1,                        !- Rows to Skip at Top
    ,                         !- Number of Hours of Data
    Comma,                    !- Column Separator
    No;                       !- Interpolate to Timestep

GlobalGeometryRules,
    UpperLeftCorner,          !- Starting Vertex Position
    Counterclockwise,         !- Vertex Entry Direction
    Relative,                 !- Coordinate System
    Relative,                 !- Daylighting Reference Point Coordinate System
    Relative;                 !- Rectangular Surface Coordinate System

Sizing:Plant,
    CHW Loop 1,               !- Plant or Condenser Loop Name
    Cooling,                  !- Loop Type
    6,                        !- Design Loop Exit Temperature
    4;                        !- Loop Design Temperature Difference

Sizing:Plant,
    HW Loop 1,                !- Plant or Condenser Loop Name
    Heating,                  !- Loop Type
    80,                       !- Design Loop Exit Temperature
    10;                       !- Loop Design Temperature Difference

Sizing:Plant,
    Condenser Loop,           !- Plant or Condenser Loop Name
    Condenser,                !- Loop Type
    29,                       !- Design Loop Exit Temperature
    5;                        !- Loop Design Temperature Difference

Branch,
    CHW Loop 1 Supply Side Inlet Branch,    !- Name
    ,                         !- Pressure Drop Curve Name
    Pump:VariableSpeed,       !- Component 1 Object Type
    CHW Loop 1 Supply Pump,    !- Component 1 Name
    CHW Loop 1 Supply Side Inlet,    !- Component 1 Inlet Node Name
    CHW Loop 1 Supply Pump Water Outlet Node;    !- Component 1 Outlet Node Name

Branch,
    CHW Loop 1 Supply Side Bypass Branch,    !- Name
    ,                         !- Pressure Drop Curve Name
    Pipe:Adiabatic,           !- Component 1 Object Type
    CHW Loop 1 Supply Side Bypass Pipe,    !- Component 1 Name
    CHW Loop 1 Supply Side Bypass Pipe Inlet Node,    !- Component 1 Inlet Node Name
    CHW Loop 1 Supply Side Bypass Pipe Outlet Node;    !- Component 1 Outlet Node Name

Branch,
    Heat Pump Cooling CHW Loop 1 Supply Side Branch,    !- Name
    ,                         !- Pressure Drop Curve Name
    HeatPump:WaterToWater:EquationFit:Cooling,    !- Component 1 Object Type
    Heat Pump Cooling,        !- Component 1 Name
    Heat Pump Cooling CHW Inlet Node,    !- Component 1 Inlet Node Name
    Heat Pump Cooling CHW Outlet Node;    !- Component 1 Outlet Node Name

Branch,
    CHW Loop 1 Supply Side Outlet Branch,    !- Name
    ,                         !- Pressure Drop Curve Name
    Pipe:Adiabatic,           !- Component 1 Object Type
    CHW Loop 1 Supply Side Outlet Branch Pipe,    !- Component 1 Name
    CHW Loop 1 Supply Side Outlet Branch Pipe Inlet,    !- Component 1 Inlet Node Name
    CHW Loop 1 Supply Side Outlet;    !- Component 1 Outlet Node Name

Branch,
    HW Loop 1 Supply Side Inlet Branch,    !- Name
    ,                         !- Pressure Drop Curve Name
    Pump:VariableSpeed,       !- Component 1 Object Type
    HW Loop 1 Supply Pump,    !- Component 1 Name
    HW Loop 1 Supply Side Inlet,    !- Component 1 Inlet Node Name
    HW Loop 1 Supply Pump Water Outlet Node;    !- Component 1 Outlet Node Name

Branch,
    HW Loop 1 Supply Side Bypass Branch,    !- Name
    ,                         !- Pressure Drop Curve Name
    Pipe:Adiabatic,           !- Component 1 Object Type
    HW Loop 1 Supply Side Bypass Pipe,    !- Component 1 Name
    HW Loop 1 Supply Side Bypass Pipe Inlet Node,    !- Component 1 Inlet Node Name
    HW Loop 1 Supply Side Bypass Pipe Outlet Node;    !- Component 1 Outlet Node Name

Branch,
    Heat Pump Heating HW Loop 1 Supply Side Branch,    !- Name
    ,                         !- Pressure Drop Curve Name
    HeatPump:WaterToWater:EquationFit:Heating,    !- Component 1 Object Type
    Heat Pump Heating,        !- Component 1 Name
    Heat Pump Heating HW Inlet Node,    !- Component 1 Inlet Node Name
    Heat Pump Heating HW Outlet Node;    !- Component 1 Outlet Node Name

Branch,
    HW Loop 1 Supply Side Outlet Branch,    !- Name
    ,                         !- Pressure Drop Curve Name
    Pipe:Adiabatic,           !- Component 1 Object Type
    HW Loop 1 Supply Side Outlet Branch Pipe,    !- Component 1 Name
    HW Loop 1 Supply Side Outlet Branch Pipe Inlet,    !- Component 1 Inlet Node Name
    HW Loop 1 Supply Side Outlet;    !- Component 1 Outlet Node Name

Branch,
    Condenser Loop Supply Side Inlet Branch,    !- Name
    ,                         !- Pressure Drop Curve Name
    Pump:VariableSpeed,       !- Component 1 Object Type
    Condenser Loop Supply Pump,    !- Component 1 Name
    Condenser Loop Supply Side Inlet,    !- Component 1 Inlet Node Name
    Condenser Loop Supply Pump Water Outlet Node;    !- Component 1 Outlet Node Name

Branch,
    Condenser Loop Supply Side Bypass Branch,    !- Name
    ,                         !- Pressure Drop Curve Name
    Pipe:Adiabatic,           !- Component 1 Object Type
    Condenser Loop Supply Side Bypass Pipe,    !- Component 1 Name
    Condenser Loop Supply Side Bypass Pipe Inlet Node,    !- Component 1 Inlet Node Name
    Condenser Loop Supply Side Bypass Pipe Outlet Node;    !- Component 1 Outlet Node Name

Branch,
    Ground Heat Exchanger Condenser Loop Supply Side Branch,    !- Name
    ,                         !- Pressure Drop Curve Name
    GroundHeatExchanger:System,    !- Component 1 Object Type
    Ground Heat Exchanger,    !- Component 1 Name
    Ground Heat Exchanger Water Inlet Node,    !- Component 1 Inlet Node Name
    Ground Heat Exchanger Water Outlet Node;    !- Component 1 Outlet Node Name

Branch,
    Condenser Loop Supply Side Outlet Branch,    !- Name
    ,                         !- Pressure Drop Curve Name
    Pipe:Adiabatic,           !- Component 1 Object Type
    Condenser Loop Supply Side Outlet Branch Pipe,    !- Component 1 Name
    Condenser Loop Supply Side Outlet Branch Pipe Inlet,    !- Component 1 Inlet Node Name
    Condenser Loop Supply Side Outlet;    !- Component 1 Outlet Node Name

Branch,
    Condenser Loop Demand Side Inlet Branch,    !- Name
    ,                         !- Pressure Drop Curve Name
    Pipe:Adiabatic,           !- Component 1 Object Type
    Condenser Loop Demand Side Inlet Branch Pipe,    !- Component 1 Name
    Condenser Loop Demand Side Inlet,    !- Component 1 Inlet Node Name
    Condenser Loop Demand Side Inlet Branch Pipe Outlet;    !- Component 1 Outlet Node Name

Branch,
    Condenser Loop Demand Side Bypass Branch,    !- Name
    ,                         !- Pressure Drop Curve Name
    Pipe:Adiabatic,           !- Component 1 Object Type
    Condenser Loop Demand Side Bypass Pipe,    !- Component 1 Name
    Condenser Loop Demand Side Bypass Pipe Inlet Node,    !- Component 1 Inlet Node Name
    Condenser Loop Demand Side Bypass Pipe Outlet Node;    !- Component 1 Outlet Node Name

Branch,
    Heat Pump Cooling Condenser Loop Demand Side Branch,    !- Name
    ,                         !- Pressure Drop Curve Name
    HeatPump:WaterToWater:EquationFit:Cooling,    !- Component 1 Object Type
    Heat Pump Cooling,        !- Component 1 Name
    Heat Pump Cooling Condenser Inlet Node,    !- Component 1 Inlet Node Name
    Heat Pump Cooling Condenser Outlet Node;    !- Component 1 Outlet Node Name

Branch,
    Heat Pump Heating Condenser Loop Demand Side Branch,    !- Name
    ,                         !- Pressure Drop Curve Name
    HeatPump:WaterToWater:EquationFit:Heating,    !- Component 1 Object Type
    Heat Pump Heating,        !- Component 1 Name
    Heat Pump Heating Condenser Inlet Node,    !- Component 1 Inlet Node Name
    Heat Pump Heating Condenser Outlet Node;    !- Component 1 Outlet Node Name

Branch,
    Condenser Loop Demand Side Outlet Branch,    !- Name
    ,                         !- Pressure Drop Curve Name
    Pipe:Adiabatic,           !- Component 1 Object Type
    Condenser Loop Demand Side Outlet Branch Pipe,    !- Component 1 Name
    Condenser Loop Demand Side Outlet Branch Pipe Inlet,    !- Component 1 Inlet Node Name
    Condenser Loop Demand Side Outlet;    !- Component 1 Outlet Node Name

Branch,
    Chilled Water Loop Demand Inlet Branch,    !- Name
    ,                         !- Pressure Drop Curve Name
    Pipe:Adiabatic,           !- Component 1 Object Type
    Chilled Water Loop Demand Inlet Pipe,    !- Component 1 Name
    Chilled Water Loop Demand Inlet Node,    !- Component 1 Inlet Node Name
    Chilled Water Loop Demand Inlet Outlet Water Node,    !- Component 1 Outlet Node Name
    Pump:VariableSpeed,       !- Component 2 Object Type
    Chilled Water Loop Secondary Pump,    !- Component 2 Name
    Chilled Water Loop Demand Inlet Outlet Water Node,    !- Component 2 Inlet Node Name
    Chilled Water Loop Secondary Pump Outlet Water Node;    !- Component 2 Outlet Node Name

Branch,
    Chilled Water Loop Demand Loadprofile Branch,    !- Name
    ,                         !- Pressure Drop Curve Name
    LoadProfile:Plant,        !- Component 1 Object Type
    District Cooling Load Profile,    !- Component 1 Name
    Cooling Loadprofile Inlet Node,    !- Component 1 Inlet Node Name
    Cooling Loadprofile Outlet Node;    !- Component 1 Outlet Node Name

Branch,
    Chilled Water Loop Demand Bypass Branch,    !- Name
    ,                         !- Pressure Drop Curve Name
    Pipe:Adiabatic,           !- Component 1 Object Type
    Chilled Water Loop Demand Bypass Pipe,    !- Component 1 Name
    Chilled Water Loop Demand Bypass Pipe Inlet Node,    !- Component 1 Inlet Node Name
    Chilled Water Loop Demand Bypass Pipe Outlet Node;    !- Component 1 Outlet Node Name

Branch,
    Chilled Water Loop Demand Outlet Branch,    !- Name
    ,                         !- Pressure Drop Curve Name
    Pipe:Adiabatic,           !- Component 1 Object Type
    Chilled Water Loop Demand Outlet Pipe,    !- Component 1 Name
    Chilled Water Loop Demand Outlet Inlet Water Node,    !- Component 1 Inlet Node Name
    Chilled Water Loop Demand Outlet Node;    !- Component 1 Outlet Node Name

Branch,
    Hot Water Loop Demand Inlet Branch,    !- Name
    ,                         !- Pressure Drop Curve Name
    Pipe:Adiabatic,           !- Component 1 Object Type
    Hot Water Loop Demand Inlet Pipe,    !- Component 1 Name
    Hot Water Loop Demand Inlet Node,    !- Component 1 Inlet Node Name
    Hot Water Loop Demand Inlet Outlet Water Node;    !- Component 1 Outlet Node Name

Branch,
    Hot Water Loop Demand Loadprofile Branch,    !- Name
    ,                         !- Pressure Drop Curve Name
    LoadProfile:Plant,        !- Component 1 Object Type
    District Heating Load Profile,    !- Component 1 Name
    Heating Loadprofile Inlet Node,    !- Component 1 Inlet Node Name
    Heating Loadprofile Outlet Node;    !- Component 1 Outlet Node Name

Branch,
    Hot Water Loop Demand Bypass Branch,    !- Name
    ,                         !- Pressure Drop Curve Name
    Pipe:Adiabatic,           !- Component 1 Object Type
    Hot Water Loop Demand Bypass Pipe,    !- Component 1 Name
    Hot Water Loop Demand Bypass Pipe Inlet Node,    !- Component 1 Inlet Node Name
    Hot Water Loop Demand Bypass Pipe Outlet Node;    !- Component 1 Outlet Node Name

Branch,
    Hot Water Loop Demand Outlet Branch,    !- Name
    ,                         !- Pressure Drop Curve Name
    Pipe:Adiabatic,           !- Component 1 Object Type
    Hot Water Loop Demand Outlet Pipe,    !- Component 1 Name
    Hot Water Loop Demand Outlet Inlet Water Node,    !- Component 1 Inlet Node Name
    Hot Water Loop Demand Outlet Node;    !- Component 1 Outlet Node Name

BranchList,
    CHW Loop 1 Supply Side Branches,    !- Name
    CHW Loop 1 Supply Side Inlet Branch,    !- Branch 1 Name
    CHW Loop 1 Supply Side Bypass Branch,    !- Branch 2 Name
    Heat Pump Cooling CHW Loop 1 Supply Side Branch,    !- Branch 3 Name
    CHW Loop 1 Supply Side Outlet Branch;    !- Branch 4 Name

BranchList,
    HW Loop 1 Supply Side Branches,    !- Name
    HW Loop 1 Supply Side Inlet Branch,    !- Branch 1 Name
    HW Loop 1 Supply Side Bypass Branch,    !- Branch 2 Name
    Heat Pump Heating HW Loop 1 Supply Side Branch,    !- Branch 3 Name
    HW Loop 1 Supply Side Outlet Branch;    !- Branch 4 Name

BranchList,
    Condenser Loop Supply Side Branches,    !- Name
    Condenser Loop Supply Side Inlet Branch,    !- Branch 1 Name
    Condenser Loop Supply Side Bypass Branch,    !- Branch 2 Name
    Ground Heat Exchanger Condenser Loop Supply Side Branch,    !- Branch 3 Name
    Condenser Loop Supply Side Outlet Branch;    !- Branch 4 Name

BranchList,
    Condenser Loop Demand Side Branches,    !- Name
    Condenser Loop Demand Side Inlet Branch,    !- Branch 1 Name
    Condenser Loop Demand Side Bypass Branch,    !- Branch 2 Name
    Heat Pump Cooling Condenser Loop Demand Side Branch,    !- Branch 3 Name
    Heat Pump Heating Condenser Loop Demand Side Branch,    !- Branch 4 Name
    Condenser Loop Demand Side Outlet Branch;    !- Branch 5 Name

BranchList,
    Chilled Water Loop Demand Branches,    !- Name
    Chilled Water Loop Demand Inlet Branch,    !- Branch 1 Name
    Chilled Water Loop Demand Loadprofile Branch,    !- Branch 2 Name
    Chilled Water Loop Demand Bypass Branch,    !- Branch 3 Name
    Chilled Water Loop Demand Outlet Branch;    !- Branch 4 Name

BranchList,
    Hot Water Loop Demand Branches,    !- Name
    Hot Water Loop Demand Inlet Branch,    !- Branch 1 Name
    Hot Water Loop Demand Loadprofile Branch,    !- Branch 2 Name
    Hot Water Loop Demand Bypass Branch,    !- Branch 3 Name
    Hot Water Loop Demand Outlet Branch;    !- Branch 4 Name

Connector:Splitter,
    CHW Loop 1 Supply Splitter,    !- Name
    CHW Loop 1 Supply Side Inlet Branch,    !- Inlet Branch Name
    CHW Loop 1 Supply Side Bypass Branch,    !- Outlet Branch 1 Name
    Heat Pump Cooling CHW Loop 1 Supply Side Branch;    !- Outlet Branch 2 Name

Connector:Splitter,
    HW Loop 1 Supply Splitter,    !- Name
    HW Loop 1 Supply Side Inlet Branch,    !- Inlet Branch Name
    HW Loop 1 Supply Side Bypass Branch,    !- Outlet Branch 1 Name
    Heat Pump Heating HW Loop 1 Supply Side Branch;    !- Outlet Branch 2 Name

Connector:Splitter,
    Condenser Loop Supply Splitter,    !- Name
    Condenser Loop Supply Side Inlet Branch,    !- Inlet Branch Name
    Condenser Loop Supply Side Bypass Branch,    !- Outlet Branch 1 Name
    Ground Heat Exchanger Condenser Loop Supply Side Branch;    !- Outlet Branch 2 Name

Connector:Splitter,
    Condenser Loop Demand Splitter,    !- Name
    Condenser Loop Demand Side Inlet Branch,    !- Inlet Branch Name
    Condenser Loop Demand Side Bypass Branch,    !- Outlet Branch 1 Name
    Heat Pump Cooling Condenser Loop Demand Side Branch,    !- Outlet Branch 2 Name
    Heat Pump Heating Condenser Loop Demand Side Branch;    !- Outlet Branch 3 Name

Connector:Splitter,
    Chilled Water Loop Demand Splitter,    !- Name
    Chilled Water Loop Demand Inlet Branch,    !- Inlet Branch Name
    Chilled Water Loop Demand Loadprofile Branch,    !- Outlet Branch 1 Name
    Chilled Water Loop Demand Bypass Branch;    !- Outlet Branch 2 Name

Connector:Splitter,
    Hot Water Loop Demand Splitter,    !- Name
    Hot Water Loop Demand Inlet Branch,    !- Inlet Branch Name
    Hot Water Loop Demand Loadprofile Branch,    !- Outlet Branch 1 Name
    Hot Water Loop Demand Bypass Branch;    !- Outlet Branch 2 Name

Connector:Mixer,
    CHW Loop 1 Supply Mixer,    !- Name
    CHW Loop 1 Supply Side Outlet Branch,    !- Outlet Branch Name
    Heat Pump Cooling CHW Loop 1 Supply Side Branch,    !- Inlet Branch 1 Name
    CHW Loop 1 Supply Side Bypass Branch;    !- Inlet Branch 2 Name

Connector:Mixer,
    HW Loop 1 Supply Mixer,    !- Name
    HW Loop 1 Supply Side Outlet Branch,    !- Outlet Branch Name
    Heat Pump Heating HW Loop 1 Supply Side Branch,    !- Inlet Branch 1 Name
    HW Loop 1 Supply Side Bypass Branch;    !- Inlet Branch 2 Name

Connector:Mixer,
    Condenser Loop Supply Mixer,    !- Name
    Condenser Loop Supply Side Outlet Branch,    !- Outlet Branch Name
    Ground Heat Exchanger Condenser Loop Supply Side Branch,    !- Inlet Branch 1 Name
    Condenser Loop Supply Side Bypass Branch;    !- Inlet Branch 2 Name

Connector:Mixer,
    Condenser Loop Demand Mixer,    !- Name
    Condenser Loop Demand Side Outlet Branch,    !- Outlet Branch Name
    Heat Pump Cooling Condenser Loop Demand Side Branch,    !- Inlet Branch 1 Name
    Condenser Loop Demand Side Bypass Branch,    !- Inlet Branch 2 Name
    Heat Pump Heating Condenser Loop Demand Side Branch;    !- Inlet Branch 3 Name

Connector:Mixer,
    Chilled Water Loop Demand Mixer,    !- Name
    Chilled Water Loop Demand Outlet Branch,    !- Outlet Branch Name
    Chilled Water Loop Demand Loadprofile Branch,    !- Inlet Branch 1 Name
    Chilled Water Loop Demand Bypass Branch;    !- Inlet Branch 2 Name

Connector:Mixer,
    Hot Water Loop Demand Mixer,    !- Name
    Hot Water Loop Demand Outlet Branch,    !- Outlet Branch Name
    Hot Water Loop Demand Loadprofile Branch,    !- Inlet Branch 1 Name
    Hot Water Loop Demand Bypass Branch;    !- Inlet Branch 2 Name

ConnectorList,
    CHW Loop 1 Supply Side Connectors,    !- Name
    Connector:Splitter,       !- Connector 1 Object Type
    CHW Loop 1 Supply Splitter,    !- Connector 1 Name
    Connector:Mixer,          !- Connector 2 Object Type
    CHW Loop 1 Supply Mixer;    !- Connector 2 Name

ConnectorList,
    HW Loop 1 Supply Side Connectors,    !- Name
    Connector:Splitter,       !- Connector 1 Object Type
    HW Loop 1 Supply Splitter,    !- Connector 1 Name
    Connector:Mixer,          !- Connector 2 Object Type
    HW Loop 1 Supply Mixer;    !- Connector 2 Name

ConnectorList,
    Condenser Loop Supply Side Connectors,    !- Name
    Connector:Splitter,       !- Connector 1 Object Type
    Condenser Loop Supply Splitter,    !- Connector 1 Name
    Connector:Mixer,          !- Connector 2 Object Type
    Condenser Loop Supply Mixer;    !- Connector 2 Name

ConnectorList,
    Condenser Loop Demand Side Connectors,    !- Name
    Connector:Splitter,       !- Connector 1 Object Type
    Condenser Loop Demand Splitter,    !- Connector 1 Name
    Connector:Mixer,          !- Connector 2 Object Type
    Condenser Loop Demand Mixer;    !- Connector 2 Name

ConnectorList,
    Chilled Water Loop Demand Connector List,    !- Name
    Connector:Splitter,       !- Connector 1 Object Type
    Chilled Water Loop Demand Splitter,    !- Connector 1 Name
    Connector:Mixer,          !- Connector 2 Object Type
    Chilled Water Loop Demand Mixer;    !- Connector 2 Name

ConnectorList,
    Hot Water Loop Demand Connector List,    !- Name
    Connector:Splitter,       !- Connector 1 Object Type
    Hot Water Loop Demand Splitter,    !- Connector 1 Name
    Connector:Mixer,          !- Connector 2 Object Type
    Hot Water Loop Demand Mixer;    !- Connector 2 Name

NodeList,
    CHW Loop 1 Setpoint Manager Node List,    !- Name
    CHW Loop 1 Supply Side Outlet;    !- Node 1 Name

NodeList,
    HW Loop 1 Setpoint Manager Node List,    !- Name
    HW Loop 1 Supply Side Outlet;    !- Node 1 Name

NodeList,
    Condenser Loop Setpoint Manager Node List,    !- Name
    Condenser Loop Supply Side Outlet;    !- Node 1 Name

Pipe:Adiabatic,
    CHW Loop 1 Supply Side Bypass Pipe,    !- Name
    CHW Loop 1 Supply Side Bypass Pipe Inlet Node,    !- Inlet Node Name
    CHW Loop 1 Supply Side Bypass Pipe Outlet Node;    !- Outlet Node Name

Pipe:Adiabatic,
    CHW Loop 1 Supply Side Outlet Branch Pipe,    !- Name
    CHW Loop 1 Supply Side Outlet Branch Pipe Inlet,    !- Inlet Node Name
    CHW Loop 1 Supply Side Outlet;    !- Outlet Node Name

Pipe:Adiabatic,
    HW Loop 1 Supply Side Bypass Pipe,    !- Name
    HW Loop 1 Supply Side Bypass Pipe Inlet Node,    !- Inlet Node Name
    HW Loop 1 Supply Side Bypass Pipe Outlet Node;    !- Outlet Node Name

Pipe:Adiabatic,
    HW Loop 1 Supply Side Outlet Branch Pipe,    !- Name
    HW Loop 1 Supply Side Outlet Branch Pipe Inlet,    !- Inlet Node Name
    HW Loop 1 Supply Side Outlet;    !- Outlet Node Name

Pipe:Adiabatic,
    Condenser Loop Supply Side Bypass Pipe,    !- Name
    Condenser Loop Supply Side Bypass Pipe Inlet Node,    !- Inlet Node Name
    Condenser Loop Supply Side Bypass Pipe Outlet Node;    !- Outlet Node Name

Pipe:Adiabatic,
    Condenser Loop Supply Side Outlet Branch Pipe,    !- Name